3DX1_ligand
     RDKit          3D

  9  9  0  0  1  0  0  0  0  0999 V2000
   33.4229   65.9053    7.2873 O   0  0  0  0  0  0  0  0  0  0  0  0
   32.5711   66.7187    8.0820 C   0  0  2  0  0  0  0  0  0  0  0  0
   32.1930   66.0945    9.4508 C   0  0  2  0  0  0  0  0  0  0  0  0
   33.1776   65.1655    9.8821 O   0  0  0  0  0  0  0  0  0  0  0  0
   30.7588   65.5432    9.2591 C   0  0  2  0  0  0  0  0  0  0  0  0
   30.3130   64.2801   10.0028 N   0  0  0  0  0  0  0  0  0  0  0  0
   30.3643   65.7385    7.7920 C   0  0  0  0  0  0  0  0  0  0  0  0
   31.2176   66.9348    7.3757 C   0  0  2  0  0  0  0  0  0  0  0  0
   31.2499   67.1863    5.9904 O   0  0  0  0  0  0  0  0  0  0  0  0
  2  1  1  6
  2  3  1  0
  2  8  1  0
  3  4  1  6
  3  5  1  0
  5  6  1  6
  5  7  1  0
  7  8  1  0
  8  9  1  6
M  CHG  1   6   1
M  END
$$$$
