2BR1_ligand
     RDKit          3D

 29 32  0  0  1  0  0  0  0  0999 V2000
   18.5326   -8.1256   13.5395 C   0  0  0  0  0  0  0  0  0  0  0  0
   17.6395   -7.8504   12.4670 O   0  0  0  0  0  0  0  0  0  0  0  0
   17.6035   -6.5735   11.9433 C   0  0  0  0  0  0  0  0  0  0  0  0
   18.3943   -5.5079   12.3978 C   0  0  0  0  0  0  0  0  0  0  0  0
   18.2873   -4.2466   11.8207 C   0  0  0  0  0  0  0  0  0  0  0  0
   16.7088   -6.3560   10.8987 C   0  0  0  0  0  0  0  0  0  0  0  0
   16.6090   -5.1010   10.3122 C   0  0  0  0  0  0  0  0  0  0  0  0
   17.4032   -4.0485   10.7617 C   0  0  0  0  0  0  0  0  0  0  0  0
   17.2846   -2.7350   10.0812 C   0  0  0  0  0  0  0  0  0  0  0  0
   16.0736   -1.9714    9.9533 C   0  0  0  0  0  0  0  0  0  0  0  0
   14.7149   -2.0408   10.3408 C   0  0  0  0  0  0  0  0  0  0  0  0
   14.2438   -3.1008   11.1342 N   0  0  0  0  0  0  0  0  0  0  0  0
   12.8319   -3.2590   11.4946 C   0  0  0  0  0  0  0  0  0  0  0  0
   12.3841   -2.4858   12.7477 C   0  0  0  0  0  0  0  0  0  0  0  0
   12.3896   -1.0906   12.5346 O   0  0  0  0  0  0  0  0  0  0  0  0
   13.8510   -1.0569    9.9644 N   0  0  0  0  0  0  0  0  0  0  0  0
   14.3569   -0.0077    9.2741 C   0  0  0  0  0  0  0  0  0  0  0  0
   15.6372    0.1738    8.8619 N   0  0  0  0  0  0  0  0  0  0  0  0
   16.4392   -0.8279    9.2174 C   0  0  0  0  0  0  0  0  0  0  0  0
   17.7550   -0.8468    8.8834 O   0  0  0  0  0  0  0  0  0  0  0  0
   18.2770   -2.0055    9.3949 C   0  0  0  0  0  0  0  0  0  0  0  0
   19.7297   -2.2445    9.0793 C   0  0  0  0  0  0  0  0  0  0  0  0
   20.4914   -1.2273    8.4920 C   0  0  0  0  0  0  0  0  0  0  0  0
   21.8464   -1.4071    8.2333 C   0  0  0  0  0  0  0  0  0  0  0  0
   22.4660   -2.6265    8.5405 C   0  0  0  0  0  0  0  0  0  0  0  0
   23.8089   -2.8863    8.3530 O   0  0  0  0  0  0  0  0  0  0  0  0
   24.6609   -1.8348    7.9098 C   0  0  0  0  0  0  0  0  0  0  0  0
   21.6986   -3.6610    9.0708 C   0  0  0  0  0  0  0  0  0  0  0  0
   20.3460   -3.4743    9.3358 C   0  0  0  0  0  0  0  0  0  0  0  0
  1  2  1  0
  2  3  1  0
  3  4  2  0
  3  6  1  0
  4  5  1  0
  5  8  2  0
  6  7  2  0
  7  8  1  0
  8  9  1  0
  9 10  1  0
  9 21  2  0
 10 11  2  0
 10 19  1  0
 11 12  1  0
 11 16  1  0
 12 13  1  0
 13 14  1  0
 14 15  1  0
 16 17  2  0
 17 18  1  0
 18 19  2  0
 19 20  1  0
 20 21  1  0
 21 22  1  0
 22 23  2  0
 22 29  1  0
 23 24  1  0
 24 25  2  0
 25 26  1  0
 25 28  1  0
 26 27  1  0
 28 29  2  0
M  END
$$$$
