7EN7 - prepared_ligand
     RDKit          3D

 41 41  0  0  1  0  0  0  0  0999 V2000
    2.6894  -11.9593  -10.8208 C   0  0  1  0  0  0  0  0  0  0  0  0
    4.1713  -12.0157  -10.4081 C   0  0  1  0  0  0  0  0  0  0  0  0
    5.8054  -10.6753  -11.6570 C   0  0  2  0  0  0  0  0  0  0  0  0
    5.4092   -9.8958  -12.9250 C   0  0  0  0  0  0  0  0  0  0  0  0
    7.2864  -11.1332  -11.7458 C   0  0  0  0  0  0  0  0  0  0  0  0
    4.5101  -13.3716   -9.7453 C   0  0  2  0  0  0  0  0  0  0  0  0
    6.8093  -14.3809   -9.8342 C   0  0  0  0  0  0  0  0  0  0  0  0
    8.2337  -14.2618   -9.3047 C   0  0  0  0  0  0  0  0  0  0  0  0
    3.5157  -13.6311   -8.5925 C   0  0  2  0  0  0  0  0  0  0  0  0
    1.7687  -12.4250   -9.6664 C   0  0  1  0  0  0  0  0  0  0  0  0
    0.3214  -12.6333  -10.1319 C   0  0  0  0  0  0  0  0  0  0  0  0
    5.9266  -13.4835   -9.3667 N   0  0  0  0  0  0  0  0  0  0  0  0
    2.3354  -10.6552  -11.2477 O   0  0  0  0  0  0  0  0  0  0  0  0
    4.9664  -11.8359  -11.5855 O   0  0  0  0  0  0  0  0  0  0  0  0
    7.5687  -12.1654  -12.4008 O   0  0  0  0  0  0  0  0  0  0  0  0
    8.1377  -10.4255  -11.1607 O   0  0  0  0  0  0  0  0  0  0  0  0
    6.5310  -15.2639  -10.6456 O   0  0  0  0  0  0  0  0  0  0  0  0
    3.8222  -14.8455   -8.0304 O   0  0  0  0  0  0  0  0  0  0  0  0
    2.2128  -13.6619   -9.0995 O   0  0  0  0  0  0  0  0  0  0  0  0
    0.2901  -13.6041  -11.1549 O   0  0  0  0  0  0  0  0  0  0  0  0
   -1.4557  -12.5988  -12.8281 O   0  0  0  0  0  0  0  0  0  0  0  0
   -2.2510  -14.1545  -10.9591 O   0  0  0  0  0  0  0  0  0  0  0  0
   -0.9243  -15.1028  -12.9268 O   0  0  0  0  0  0  0  0  0  0  0  0
   -1.1860  -13.8844  -12.0298 P   0  0  0  0  0  0  0  0  0  0  0  0
    2.5531  -12.6192  -11.6797 H   0  0  0  0  0  0  0  0  0  0  0  0
    4.3682  -11.2285   -9.6761 H   0  0  0  0  0  0  0  0  0  0  0  0
    5.6735  -10.0123  -10.7992 H   0  0  0  0  0  0  0  0  0  0  0  0
    4.3760   -9.5535  -12.8620 H   0  0  0  0  0  0  0  0  0  0  0  0
    6.0338   -9.0126  -13.0657 H   0  0  0  0  0  0  0  0  0  0  0  0
    5.4917  -10.5150  -13.8195 H   0  0  0  0  0  0  0  0  0  0  0  0
    4.2993  -14.1422  -10.4928 H   0  0  0  0  0  0  0  0  0  0  0  0
    8.5914  -15.2322   -8.9601 H   0  0  0  0  0  0  0  0  0  0  0  0
    8.8973  -13.9111  -10.0957 H   0  0  0  0  0  0  0  0  0  0  0  0
    8.2949  -13.5601   -8.4720 H   0  0  0  0  0  0  0  0  0  0  0  0
    3.5297  -12.8319   -7.8472 H   0  0  0  0  0  0  0  0  0  0  0  0
    1.7662  -11.6773   -8.8724 H   0  0  0  0  0  0  0  0  0  0  0  0
   -0.0964  -11.7040  -10.5175 H   0  0  0  0  0  0  0  0  0  0  0  0
   -0.3081  -12.9523   -9.3009 H   0  0  0  0  0  0  0  0  0  0  0  0
    6.2485  -12.8110   -8.6831 H   0  0  0  0  0  0  0  0  0  0  0  0
    1.6586  -10.7350  -11.9294 H   0  0  0  0  0  0  0  0  0  0  0  0
    4.7034  -14.7762   -7.6543 H   0  0  0  0  0  0  0  0  0  0  0  0
  1  2  1  0
  1 10  1  0
  1 13  1  0
  1 25  1  6
  2  6  1  0
  2 14  1  0
  2 26  1  1
  3  4  1  0
  3  5  1  0
  3 14  1  0
  3 27  1  1
  4 28  1  0
  4 29  1  0
  4 30  1  0
  5 15  2  0
  5 16  1  0
  6  9  1  0
  6 12  1  0
  6 31  1  6
  7  8  1  0
  7 12  1  0
  7 17  2  0
  8 32  1  0
  8 33  1  0
  8 34  1  0
  9 18  1  0
  9 19  1  0
  9 35  1  1
 10 11  1  0
 10 19  1  0
 10 36  1  1
 11 20  1  0
 11 37  1  0
 11 38  1  0
 12 39  1  0
 13 40  1  0
 18 41  1  0
 20 24  1  0
 21 24  1  0
 22 24  1  0
 23 24  2  0
M  CHG  3  16  -1  21  -1  22  -1
M  END
$$$$
