8FAV - prepared_ligand4
     RDKit          3D

 42 45  0  0  1  0  0  0  0  0999 V2000
    0.1313    7.8950  -10.4740 C   0  0  0  0  0  0  0  0  0  0  0  0
   -0.4652    9.1402  -10.2815 C   0  0  0  0  0  0  0  0  0  0  0  0
   -0.1076    9.8594   -9.1313 C   0  0  0  0  0  0  0  0  0  0  0  0
    0.8288    9.3447   -8.1951 C   0  0  0  0  0  0  0  0  0  0  0  0
    1.4141    8.0861   -8.4263 C   0  0  0  0  0  0  0  0  0  0  0  0
    0.9042   10.3480   -7.1825 C   0  0  0  0  0  0  0  0  0  0  0  0
   -1.4102   12.0611   -9.1993 C   0  0  0  0  0  0  0  0  0  0  0  0
   -2.3518   15.6294   -6.9419 C   0  0  0  0  0  0  0  0  0  0  0  0
   -2.8420   14.3940   -6.5398 C   0  0  0  0  0  0  0  0  0  0  0  0
    3.7423    9.9995   -7.1382 F   0  0  0  0  0  0  0  0  0  0  0  0
    3.0941   10.1584   -5.9610 C   0  0  0  0  0  0  0  0  0  0  0  0
    3.8237   10.1532   -4.7742 C   0  0  0  0  0  0  0  0  0  0  0  0
    3.2020   10.3642   -3.5275 C   0  0  0  0  0  0  0  0  0  0  0  0
    4.0021   10.3901   -2.2452 C   0  0  0  0  0  0  0  0  0  0  0  0
    3.4060   10.5572   -1.1570 O   0  0  0  0  0  0  0  0  0  0  0  0
    5.2439   10.2537   -2.3069 O   0  0  0  0  0  0  0  0  0  0  0  0
    1.8084   10.5618   -3.5229 C   0  0  0  0  0  0  0  0  0  0  0  0
    1.0757   10.5666   -4.7070 C   0  0  0  0  0  0  0  0  0  0  0  0
    1.7121   10.3612   -5.9336 C   0  0  0  0  0  0  0  0  0  0  0  0
    2.3062    7.5521   -7.5623 F   0  0  0  0  0  0  0  0  0  0  0  0
    1.0514    7.3798   -9.5685 C   0  0  0  0  0  0  0  0  0  0  0  0
    0.1138   11.3443   -7.4722 N   0  0  0  0  0  0  0  0  0  0  0  0
   -0.5082   11.1031   -8.6470 N   0  0  0  0  0  0  0  0  0  0  0  0
   -1.9345   11.8729  -10.2973 O   0  0  0  0  0  0  0  0  0  0  0  0
   -1.7122   13.3188   -8.4083 C   0  0  0  0  0  0  0  0  0  0  0  0
   -2.5232   13.2429   -7.2570 C   0  0  0  0  0  0  0  0  0  0  0  0
   -3.1319   11.7380   -6.6587 Cl  0  0  0  0  0  0  0  0  0  0  0  0
   -1.5388   15.7167   -8.0649 C   0  0  0  0  0  0  0  0  0  0  0  0
   -1.2061   14.5789   -8.8126 C   0  0  0  0  0  0  0  0  0  0  0  0
   -0.2853   14.7424  -10.0317 C   0  0  0  0  0  0  0  0  0  0  0  0
    0.1749   15.9858  -10.1784 F   0  0  0  0  0  0  0  0  0  0  0  0
    0.7710   13.9345   -9.9382 F   0  0  0  0  0  0  0  0  0  0  0  0
   -0.9728   14.4317  -11.1257 F   0  0  0  0  0  0  0  0  0  0  0  0
   -0.1250    7.3169  -11.3501 H   0  0  0  0  0  0  0  0  0  0  0  0
   -1.1689    9.5265  -10.9984 H   0  0  0  0  0  0  0  0  0  0  0  0
   -2.5913   16.5211   -6.3821 H   0  0  0  0  0  0  0  0  0  0  0  0
   -3.4656   14.3295   -5.6611 H   0  0  0  0  0  0  0  0  0  0  0  0
    4.8896    9.9898   -4.8395 H   0  0  0  0  0  0  0  0  0  0  0  0
    1.2735   10.7148   -2.5973 H   0  0  0  0  0  0  0  0  0  0  0  0
    0.0066   10.7194   -4.6660 H   0  0  0  0  0  0  0  0  0  0  0  0
    1.4911    6.4136   -9.7508 H   0  0  0  0  0  0  0  0  0  0  0  0
   -1.1564   16.6870   -8.3362 H   0  0  0  0  0  0  0  0  0  0  0  0
  1  2  2  0
  1 21  1  0
  1 34  1  0
  2  3  1  0
  2 35  1  0
  3  4  2  0
  3 23  1  0
  4  5  1  0
  4  6  1  0
  5 20  1  0
  5 21  2  0
  6 19  1  0
  6 22  2  0
  7 23  1  0
  7 24  2  0
  7 25  1  0
  8  9  2  0
  8 28  1  0
  8 36  1  0
  9 26  1  0
  9 37  1  0
 10 11  1  0
 11 12  2  0
 11 19  1  0
 12 13  1  0
 12 38  1  0
 13 14  1  0
 13 17  2  0
 14 15  1  0
 14 16  2  0
 17 18  1  0
 17 39  1  0
 18 19  2  0
 18 40  1  0
 21 41  1  0
 22 23  1  0
 25 26  2  0
 25 29  1  0
 26 27  1  0
 28 29  2  0
 28 42  1  0
 29 30  1  0
 30 31  1  0
 30 32  1  0
 30 33  1  0
M  CHG  1  15  -1
M  END
$$$$
