3B27_ligand
     RDKit          3D

 16 17  0  0  1  0  0  0  0  0999 V2000
   13.6977    4.6897   12.8449 C   0  0  0  0  0  0  0  0  0  0  0  0
   12.2019    5.5225   12.2514 S   0  0  0  0  0  0  0  0  0  0  0  0
   10.8105    4.5190   12.6624 C   0  0  0  0  0  0  0  0  0  0  0  0
   11.0319    3.2513   13.1034 N   0  0  0  0  0  0  0  0  0  0  0  0
    9.5912    5.1019   12.5287 N   0  0  0  0  0  0  0  0  0  0  0  0
    8.5459    4.3147   12.8807 C   0  0  0  0  0  0  0  0  0  0  0  0
    7.2767    4.8684   12.8219 N   0  0  0  0  0  0  0  0  0  0  0  0
    8.6344    3.0323   13.3050 N   0  0  0  0  0  0  0  0  0  0  0  0
    9.9019    2.5492   13.3929 C   0  0  0  0  0  0  0  0  0  0  0  0
   10.0665    1.1554   13.8838 C   0  0  0  0  0  0  0  0  0  0  0  0
   10.8649    0.9141   15.0121 C   0  0  0  0  0  0  0  0  0  0  0  0
   11.0478   -0.3773   15.5019 C   0  0  0  0  0  0  0  0  0  0  0  0
   10.4440   -1.4547   14.8613 C   0  0  0  0  0  0  0  0  0  0  0  0
    9.6444   -1.2331   13.7447 C   0  0  0  0  0  0  0  0  0  0  0  0
    9.4430    0.0581   13.2582 C   0  0  0  0  0  0  0  0  0  0  0  0
    8.4257    0.2455   11.8699 Cl  0  0  0  0  0  0  0  0  0  0  0  0
  1  2  1  0
  2  3  1  0
  3  4  2  0
  3  5  1  0
  4  9  1  0
  5  6  2  0
  6  7  1  0
  6  8  1  0
  8  9  2  0
  9 10  1  0
 10 11  2  0
 10 15  1  0
 11 12  1  0
 12 13  2  0
 13 14  1  0
 14 15  2  0
 15 16  1  0
M  END
$$$$
