1EBY_ligand
     RDKit          3D

 48 53  0  0  1  0  0  0  0  0999 V2000
    9.6875   24.2513    2.2087 C   0  0  0  0  0  0  0  0  0  0  0  0
    9.0899   25.4097    1.7110 C   0  0  0  0  0  0  0  0  0  0  0  0
    7.7222   25.6108    1.8634 C   0  0  0  0  0  0  0  0  0  0  0  0
    6.9537   24.6524    2.5179 C   0  0  0  0  0  0  0  0  0  0  0  0
    7.5415   23.4951    3.0204 C   0  0  0  0  0  0  0  0  0  0  0  0
    8.9093   23.2876    2.8571 C   0  0  0  0  0  0  0  0  0  0  0  0
   16.3989   22.2003    8.7636 C   0  0  0  0  0  0  0  0  0  0  0  0
   15.6722   21.2475    9.4838 C   0  0  0  0  0  0  0  0  0  0  0  0
   16.3161   20.1183    9.9848 C   0  0  0  0  0  0  0  0  0  0  0  0
   17.6837   19.9536    9.7760 C   0  0  0  0  0  0  0  0  0  0  0  0
   18.4130   20.9050    9.0660 C   0  0  0  0  0  0  0  0  0  0  0  0
   17.7706   22.0303    8.5603 C   0  0  0  0  0  0  0  0  0  0  0  0
   15.6890   23.4150    8.1792 C   0  0  0  0  0  0  0  0  0  0  0  0
   14.6510   23.0553    7.2633 O   0  0  0  0  0  0  0  0  0  0  0  0
   15.0711   22.6513    5.9554 C   0  0  2  0  0  0  0  0  0  0  0  0
   13.9308   22.9694    4.9488 C   0  0  1  0  0  0  0  0  0  0  0  0
   13.4194   24.4365    4.9610 C   0  0  2  0  0  0  0  0  0  0  0  0
   12.0668   24.6693    4.2134 C   0  0  2  0  0  0  0  0  0  0  0  0
   10.8908   24.6633    5.2060 C   0  0  0  0  0  0  0  0  0  0  0  0
   10.6268   23.6432    5.8451 O   0  0  0  0  0  0  0  0  0  0  0  0
   10.1994   25.8097    5.3166 N   0  0  0  0  0  0  0  0  0  0  0  0
   11.8517   23.6563    3.2192 O   0  0  0  0  0  0  0  0  0  0  0  0
   11.1829   24.0370    2.0155 C   0  0  0  0  0  0  0  0  0  0  0  0
   14.4128   25.3026    4.4654 O   0  0  0  0  0  0  0  0  0  0  0  0
   14.3183   22.5827    3.6356 O   0  0  0  0  0  0  0  0  0  0  0  0
   15.3387   21.1359    5.9719 C   0  0  0  0  0  0  0  0  0  0  0  0
   14.4227   20.3593    6.2463 O   0  0  0  0  0  0  0  0  0  0  0  0
   16.5727   20.7332    5.6356 N   0  0  0  0  0  0  0  0  0  0  0  0
   16.9461   19.3331    5.4317 C   0  0  1  0  0  0  0  0  0  0  0  0
   16.8605   18.8981    3.9871 C   0  0  0  0  0  0  0  0  0  0  0  0
   17.8723   17.9733    3.7272 C   0  0  0  0  0  0  0  0  0  0  0  0
   15.9487   19.2492    2.9895 C   0  0  0  0  0  0  0  0  0  0  0  0
   16.0390   18.6507    1.7356 C   0  0  0  0  0  0  0  0  0  0  0  0
   17.0129   17.6792    1.4966 C   0  0  0  0  0  0  0  0  0  0  0  0
   18.3882   18.9865    5.8413 C   0  0  2  0  0  0  0  0  0  0  0  0
   19.3018   20.0351    5.5692 O   0  0  0  0  0  0  0  0  0  0  0  0
   17.9202   17.3272    2.4954 C   0  0  0  0  0  0  0  0  0  0  0  0
   18.7198   17.7676    4.9651 C   0  0  0  0  0  0  0  0  0  0  0  0
    9.0501   26.0258    6.1995 C   0  0  1  0  0  0  0  0  0  0  0  0
    9.3806   26.7108    7.5090 C   0  0  0  0  0  0  0  0  0  0  0  0
    8.3265   27.5544    7.8677 C   0  0  0  0  0  0  0  0  0  0  0  0
   10.4861   26.5709    8.3502 C   0  0  0  0  0  0  0  0  0  0  0  0
   10.5217   27.2611    9.5613 C   0  0  0  0  0  0  0  0  0  0  0  0
    9.4458   28.0642    9.9442 C   0  0  0  0  0  0  0  0  0  0  0  0
    7.9557   26.9197    5.5820 C   0  0  2  0  0  0  0  0  0  0  0  0
    8.4736   27.9658    4.7748 O   0  0  0  0  0  0  0  0  0  0  0  0
    8.3377   28.1975    9.1045 C   0  0  0  0  0  0  0  0  0  0  0  0
    7.2490   27.5256    6.8041 C   0  0  0  0  0  0  0  0  0  0  0  0
  1  2  2  0
  1  6  1  0
  1 23  1  0
  2  3  1  0
  3  4  2  0
  4  5  1  0
  5  6  2  0
  7  8  2  0
  7 12  1  0
  7 13  1  0
  8  9  1  0
  9 10  2  0
 10 11  1  0
 11 12  2  0
 13 14  1  0
 15 14  1  1
 15 16  1  0
 15 26  1  0
 16 17  1  0
 16 25  1  6
 17 18  1  0
 17 24  1  6
 18 19  1  0
 18 22  1  6
 19 20  2  0
 19 21  1  0
 39 21  1  6
 22 23  1  0
 26 27  2  0
 26 28  1  0
 29 28  1  6
 29 30  1  0
 29 35  1  0
 30 31  1  0
 30 32  2  0
 31 37  2  0
 31 38  1  0
 32 33  1  0
 33 34  2  0
 34 37  1  0
 35 36  1  6
 35 38  1  0
 39 40  1  0
 39 45  1  0
 40 41  1  0
 40 42  2  0
 41 47  2  0
 41 48  1  0
 42 43  1  0
 43 44  2  0
 44 47  1  0
 45 46  1  6
 45 48  1  0
M  END
$$$$
