4AGN_ligand
     RDKit          3D

 24 25  0  0  1  0  0  0  0  0999 V2000
   91.4830   93.6100  -45.3466 C   0  0  0  0  0  0  0  0  0  0  0  0
   90.8147   95.8769  -44.7818 C   0  0  0  0  0  0  0  0  0  0  0  0
   90.7465   98.3932  -44.7206 N   0  0  0  0  0  0  0  0  0  0  0  0
   91.0832   96.6371  -42.5119 O   0  0  0  0  0  0  0  0  0  0  0  0
   91.8946   93.4016  -44.0313 C   0  0  0  0  0  0  0  0  0  0  0  0
   90.0967   97.1655  -45.1976 C   0  0  0  0  0  0  0  0  0  0  0  0
   92.3690  102.4939  -44.3974 N   0  0  0  0  0  0  0  0  0  0  0  0
   89.7806   99.4980  -44.6332 C   0  0  0  0  0  0  0  0  0  0  0  0
   90.9549   94.8482  -45.7218 C   0  0  0  0  0  0  0  0  0  0  0  0
   91.7707   94.4179  -43.0882 C   0  0  0  0  0  0  0  0  0  0  0  0
   91.2348   95.6559  -43.4581 C   0  0  0  0  0  0  0  0  0  0  0  0
   90.4128  100.8046  -44.1053 C   0  0  0  0  0  0  0  0  0  0  0  0
   91.6681  101.1955  -44.9088 C   0  0  0  0  0  0  0  0  0  0  0  0
   93.2018  102.3868  -43.0923 C   0  0  0  0  0  0  0  0  0  0  0  0
   94.1366  103.5993  -42.9289 C   0  0  0  0  0  0  0  0  0  0  0  0
   91.4606  103.7559  -44.4776 C   0  0  0  0  0  0  0  0  0  0  0  0
   90.7051  104.0808  -43.1688 C   0  0  0  0  0  0  0  0  0  0  0  0
   92.6304   99.9914  -44.9698 C   0  0  0  0  0  0  0  0  0  0  0  0
   91.9309   98.7363  -45.5197 C   0  0  0  0  0  0  0  0  0  0  0  0
   91.5671   92.5160  -46.3056 C   0  0  0  0  0  0  0  0  0  0  0  0
   91.6298   91.5716  -47.0698 C   0  0  0  0  0  0  0  0  0  0  0  0
   91.7057   90.4118  -47.9713 C   0  0  0  0  0  0  0  0  0  0  0  0
   91.8929   90.7750  -49.3167 O   0  0  0  0  0  0  0  0  0  0  0  0
   92.3591   94.0282  -41.1182 I   0  0  0  0  0  0  0  0  0  0  0  0
  1  5  2  0
  1  9  1  0
  1 20  1  0
  2  6  1  0
  2  9  2  0
  2 11  1  0
  3  6  1  0
  3  8  1  0
  3 19  1  0
  4 11  1  0
  5 10  1  0
  7 13  1  0
  7 14  1  0
  7 16  1  0
  8 12  1  0
 10 11  2  0
 10 24  1  0
 12 13  1  0
 13 18  1  0
 14 15  1  0
 16 17  1  0
 18 19  1  0
 20 21  3  0
 21 22  1  0
 22 23  1  0
M  CHG  1   7   1
M  END
$$$$
