4DLI_ligand
     RDKit          3D

 21 24  0  0  1  0  0  0  0  0999 V2000
   24.2017  -17.0320  -10.8247 N   0  0  0  0  0  0  0  0  0  0  0  0
   23.9342  -17.7436   -9.7002 C   0  0  0  0  0  0  0  0  0  0  0  0
   24.1621  -17.2324   -8.4734 N   0  0  0  0  0  0  0  0  0  0  0  0
   24.6275  -15.9534   -8.2708 C   0  0  0  0  0  0  0  0  0  0  0  0
   24.8383  -15.1385   -9.4225 C   0  0  0  0  0  0  0  0  0  0  0  0
   24.6347  -15.7486  -10.6978 C   0  0  0  0  0  0  0  0  0  0  0  0
   25.5239  -13.6587   -5.5290 N   0  0  0  0  0  0  0  0  0  0  0  0
   22.0440  -21.5961  -10.0953 C   0  0  0  0  0  0  0  0  0  0  0  0
   22.4433  -20.8993  -11.2288 C   0  0  0  0  0  0  0  0  0  0  0  0
   22.3014  -21.0831   -8.8291 C   0  0  0  0  0  0  0  0  0  0  0  0
   23.0708  -19.6646  -11.0972 C   0  0  0  0  0  0  0  0  0  0  0  0
   22.9390  -19.8528   -8.7014 C   0  0  0  0  0  0  0  0  0  0  0  0
   25.4823  -13.3205   -7.9171 C   0  0  0  0  0  0  0  0  0  0  0  0
   25.2590  -13.7947   -9.2091 C   0  0  0  0  0  0  0  0  0  0  0  0
   24.8751  -15.4634   -6.9732 C   0  0  0  0  0  0  0  0  0  0  0  0
   25.9706  -16.4617  -13.6379 C   0  0  0  0  0  0  0  0  0  0  0  0
   25.7285  -15.1076  -14.2634 C   0  0  0  0  0  0  0  0  0  0  0  0
   24.8935  -15.0256  -11.8759 N   0  0  0  0  0  0  0  0  0  0  0  0
   25.3003  -14.1476   -6.8117 C   0  0  0  0  0  0  0  0  0  0  0  0
   23.3186  -19.1079   -9.8311 C   0  0  0  0  0  0  0  0  0  0  0  0
   24.7886  -15.6213  -13.2009 C   0  0  0  0  0  0  0  0  0  0  0  0
  1  2  2  0
  1  6  1  0
  2  3  1  0
  2 20  1  0
  3  4  2  0
  4  5  1  0
  4 15  1  0
  5  6  2  0
  5 14  1  0
  6 18  1  0
  7 19  1  0
  8  9  2  0
  8 10  1  0
  9 11  1  0
 10 12  2  0
 11 20  2  0
 12 20  1  0
 13 14  2  0
 13 19  1  0
 15 19  2  0
 16 17  1  0
 16 21  1  0
 17 21  1  0
 18 21  1  0
M  CHG  1   3   1
M  END
$$$$
