7TE8 - prepared_ligand2
     RDKit          3D

 53 54  0  0  1  0  0  0  0  0999 V2000
  -62.3653  -54.2961   34.9725 C   0  0  0  0  0  0  0  0  0  0  0  0
  -59.8620  -56.7718   36.4358 C   0  0  0  0  0  0  0  0  0  0  0  0
  -61.9215  -58.0003   36.1345 C   0  0  0  0  0  0  0  0  0  0  0  0
  -64.5072  -56.0825   40.1943 C   0  0  0  0  0  0  0  0  0  0  0  0
  -62.2383  -55.1515   33.7213 C   0  0  0  0  0  0  0  0  0  0  0  0
  -63.0534  -54.9670   36.1733 C   0  0  1  0  0  0  0  0  0  0  0  0
  -62.0369  -55.6363   37.1537 C   0  0  1  0  0  0  0  0  0  0  0  0
  -63.9940  -54.0034   36.9375 C   0  0  0  0  0  0  0  0  0  0  0  0
  -64.8330  -54.7675   37.9833 C   0  0  0  0  0  0  0  0  0  0  0  0
  -62.6991  -55.9999   38.4800 C   0  0  0  0  0  0  0  0  0  0  0  0
  -61.2607  -56.8282   36.5584 C   0  0  0  0  0  0  0  0  0  0  0  0
  -63.9317  -55.6194   38.8741 C   0  0  0  0  0  0  0  0  0  0  0  0
  -59.8156  -58.9801   35.4501 C   0  0  0  0  0  0  0  0  0  0  0  0
  -59.1527  -57.8479   35.9133 C   0  0  0  0  0  0  0  0  0  0  0  0
  -61.2008  -59.0539   35.5699 C   0  0  0  0  0  0  0  0  0  0  0  0
  -59.0309  -60.0943   34.7769 C   0  0  0  0  0  0  0  0  0  0  0  0
  -61.8983  -53.0321   34.9940 C   0  0  0  0  0  0  0  0  0  0  0  0
  -58.1396  -59.5502   33.6438 C   0  0  0  0  0  0  0  0  0  0  0  0
  -57.5938  -60.6228   32.6949 C   0  0  0  0  0  0  0  0  0  0  0  0
  -56.6454  -60.0501   31.6257 C   0  0  0  0  0  0  0  0  0  0  0  0
  -57.2762  -58.9891   30.7096 C   0  0  0  0  0  0  0  0  0  0  0  0
  -59.1431  -55.6672   36.8031 O   0  0  0  0  0  0  0  0  0  0  0  0
  -63.2777  -58.1550   36.2564 O   0  0  0  0  0  0  0  0  0  0  0  0
  -63.7641  -56.5938   40.8052 H   0  0  0  0  0  0  0  0  0  0  0  0
  -64.8634  -55.2272   40.7563 H   0  0  0  0  0  0  0  0  0  0  0  0
  -65.3415  -56.7635   40.0354 H   0  0  0  0  0  0  0  0  0  0  0  0
  -61.7383  -54.6147   32.9144 H   0  0  0  0  0  0  0  0  0  0  0  0
  -61.6533  -56.0481   33.9217 H   0  0  0  0  0  0  0  0  0  0  0  0
  -63.2222  -55.4517   33.3604 H   0  0  0  0  0  0  0  0  0  0  0  0
  -63.7119  -55.7352   35.7720 H   0  0  0  0  0  0  0  0  0  0  0  0
  -61.3195  -54.8640   37.4267 H   0  0  0  0  0  0  0  0  0  0  0  0
  -64.6647  -53.4837   36.2550 H   0  0  0  0  0  0  0  0  0  0  0  0
  -63.4065  -53.2496   37.4599 H   0  0  0  0  0  0  0  0  0  0  0  0
  -65.5758  -55.4019   37.5005 H   0  0  0  0  0  0  0  0  0  0  0  0
  -65.4116  -54.0700   38.5901 H   0  0  0  0  0  0  0  0  0  0  0  0
  -62.1130  -56.5769   39.1774 H   0  0  0  0  0  0  0  0  0  0  0  0
  -58.0780  -57.7990   35.8389 H   0  0  0  0  0  0  0  0  0  0  0  0
  -61.7152  -59.9372   35.2237 H   0  0  0  0  0  0  0  0  0  0  0  0
  -59.7203  -60.8426   34.3886 H   0  0  0  0  0  0  0  0  0  0  0  0
  -58.4303  -60.6048   35.5263 H   0  0  0  0  0  0  0  0  0  0  0  0
  -61.9763  -52.4102   35.8735 H   0  0  0  0  0  0  0  0  0  0  0  0
  -61.4242  -52.5944   34.1273 H   0  0  0  0  0  0  0  0  0  0  0  0
  -57.3034  -58.9919   34.0683 H   0  0  0  0  0  0  0  0  0  0  0  0
  -58.7213  -58.8349   33.0604 H   0  0  0  0  0  0  0  0  0  0  0  0
  -58.4253  -61.1359   32.2178 H   0  0  0  0  0  0  0  0  0  0  0  0
  -57.0723  -61.3876   33.2681 H   0  0  0  0  0  0  0  0  0  0  0  0
  -56.2812  -60.8661   31.0062 H   0  0  0  0  0  0  0  0  0  0  0  0
  -55.7664  -59.6288   32.1140 H   0  0  0  0  0  0  0  0  0  0  0  0
  -56.5869  -58.7107   29.9168 H   0  0  0  0  0  0  0  0  0  0  0  0
  -58.1864  -59.3584   30.2384 H   0  0  0  0  0  0  0  0  0  0  0  0
  -57.5210  -58.0748   31.2512 H   0  0  0  0  0  0  0  0  0  0  0  0
  -58.2478  -55.6956   36.4467 H   0  0  0  0  0  0  0  0  0  0  0  0
  -63.5773  -59.0163   35.9428 H   0  0  0  0  0  0  0  0  0  0  0  0
  1  5  1  0
  1  6  1  0
  1 17  2  0
  2 11  2  0
  2 14  1  0
  2 22  1  0
  3 11  1  0
  3 15  2  0
  3 23  1  0
  4 12  1  0
  4 24  1  0
  4 25  1  0
  4 26  1  0
  5 27  1  0
  5 28  1  0
  5 29  1  0
  6  7  1  0
  6  8  1  0
  6 30  1  6
  7 10  1  0
  7 11  1  0
  7 31  1  1
  8  9  1  0
  8 32  1  0
  8 33  1  0
  9 12  1  0
  9 34  1  0
  9 35  1  0
 10 12  2  0
 10 36  1  0
 13 14  2  0
 13 15  1  0
 13 16  1  0
 14 37  1  0
 15 38  1  0
 16 18  1  0
 16 39  1  0
 16 40  1  0
 17 41  1  0
 17 42  1  0
 18 19  1  0
 18 43  1  0
 18 44  1  0
 19 20  1  0
 19 45  1  0
 19 46  1  0
 20 21  1  0
 20 47  1  0
 20 48  1  0
 21 49  1  0
 21 50  1  0
 21 51  1  0
 22 52  1  0
 23 53  1  0
M  END
$$$$
