3U8K_ligand
     RDKit          3D

 16 17  0  0  1  0  0  0  0  0999 V2000
   85.3604  220.9042   92.2804 C   0  0  0  0  0  0  0  0  0  0  0  0
   84.5561  219.8779   93.0963 N   0  0  0  0  0  0  0  0  0  0  0  0
   84.7392  219.9369   94.6173 C   0  0  0  0  0  0  0  0  0  0  0  0
   83.9127  221.0530   95.2659 C   0  0  0  0  0  0  0  0  0  0  0  0
   84.2406  222.4697   94.7700 C   0  0  0  0  0  0  0  0  0  0  0  0
   83.8960  222.7660   93.3766 N   0  0  0  0  0  0  0  0  0  0  0  0
   84.9017  222.3779   92.3800 C   0  0  0  0  0  0  0  0  0  0  0  0
   80.2235  224.5012   92.3366 C   0  0  0  0  0  0  0  0  0  0  0  0
   80.3519  223.9804   93.6223 C   0  0  0  0  0  0  0  0  0  0  0  0
   81.5834  223.3909   93.9563 C   0  0  0  0  0  0  0  0  0  0  0  0
   82.6457  223.3319   93.0333 C   0  0  0  0  0  0  0  0  0  0  0  0
   82.3917  223.8946   91.7710 C   0  0  0  0  0  0  0  0  0  0  0  0
   81.2176  224.4722   91.4199 N   0  0  0  0  0  0  0  0  0  0  0  0
   79.2674  224.0870   94.4729 O   0  0  0  0  0  0  0  0  0  0  0  0
   79.4657  223.8500   95.8652 C   0  0  0  0  0  0  0  0  0  0  0  0
   78.1562  224.0437   96.6331 C   0  0  0  0  0  0  0  0  0  0  0  0
  1  2  1  0
  1  7  1  0
  2  3  1  0
  3  4  1  0
  4  5  1  0
  5  6  1  0
  6  7  1  0
  6 11  1  0
  8  9  2  0
  8 13  1  0
  9 10  1  0
  9 14  1  0
 10 11  2  0
 11 12  1  0
 12 13  2  0
 14 15  1  0
 15 16  1  0
M  CHG  1   2   1
M  END
$$$$
