7POM - prepared_ligand7
     RDKit          3D

 40 41  0  0  1  0  0  0  0  0999 V2000
  -30.9001   -3.3776  -53.7732 Cl  0  0  0  0  0  0  0  0  0  0  0  0
  -29.9340   -3.9823  -55.0827 C   0  0  0  0  0  0  0  0  0  0  0  0
  -29.3666   -5.2747  -55.1145 C   0  0  0  0  0  0  0  0  0  0  0  0
  -29.4219   -6.2009  -53.9233 C   0  0  0  0  0  0  0  0  0  0  0  0
  -29.0959   -7.4794  -54.2212 O   0  0  0  0  0  0  0  0  0  0  0  0
  -28.9750   -8.4543  -53.1968 C   0  0  0  0  0  0  0  0  0  0  0  0
  -29.6935   -5.8340  -52.7776 O   0  0  0  0  0  0  0  0  0  0  0  0
  -29.7369   -3.1121  -56.1493 C   0  0  0  0  0  0  0  0  0  0  0  0
  -29.0653   -3.5100  -57.3024 C   0  0  0  0  0  0  0  0  0  0  0  0
  -28.5510   -4.8150  -57.3896 C   0  0  0  0  0  0  0  0  0  0  0  0
  -27.7094   -5.4166  -58.8763 S   0  0  0  0  0  0  0  0  0  0  0  0
  -28.7535   -5.7787  -59.8362 O   0  0  0  0  0  0  0  0  0  0  0  0
  -26.8592   -6.8995  -58.4632 N   0  0  0  0  0  0  0  0  0  0  0  0
  -26.6660   -4.4502  -59.2351 O   0  0  0  0  0  0  0  0  0  0  0  0
  -28.7103   -5.6769  -56.2956 C   0  0  0  0  0  0  0  0  0  0  0  0
  -28.8146   -2.2990  -58.5748 S   0  0  0  0  0  0  0  0  0  0  0  0
  -30.4006   -1.7256  -59.2830 C   0  0  0  0  0  0  0  0  0  0  0  0
  -31.5827   -1.6033  -58.2956 C   0  0  0  0  0  0  0  0  0  0  0  0
  -32.8896   -1.1245  -58.9689 C   0  0  0  0  0  0  0  0  0  0  0  0
  -32.6856   -0.1200  -60.1270 C   0  0  0  0  0  0  0  0  0  0  0  0
  -31.3204    0.5863  -60.0704 C   0  0  0  0  0  0  0  0  0  0  0  0
  -30.1398   -0.4067  -60.0645 C   0  0  0  0  0  0  0  0  0  0  0  0
  -28.8482   -9.4433  -53.6291 H   0  0  0  0  0  0  0  0  0  0  0  0
  -28.0970   -8.2609  -52.5824 H   0  0  0  0  0  0  0  0  0  0  0  0
  -29.8582   -8.4684  -52.5587 H   0  0  0  0  0  0  0  0  0  0  0  0
  -30.1184   -2.1057  -56.0712 H   0  0  0  0  0  0  0  0  0  0  0  0
  -26.2716   -7.1902  -59.2530 H   0  0  0  0  0  0  0  0  0  0  0  0
  -27.5420   -7.6678  -58.3710 H   0  0  0  0  0  0  0  0  0  0  0  0
  -28.3022   -6.6735  -56.3649 H   0  0  0  0  0  0  0  0  0  0  0  0
  -30.6566   -2.5026  -60.0029 H   0  0  0  0  0  0  0  0  0  0  0  0
  -31.3179   -0.8907  -57.5137 H   0  0  0  0  0  0  0  0  0  0  0  0
  -31.7784   -2.5579  -57.8072 H   0  0  0  0  0  0  0  0  0  0  0  0
  -33.5324   -0.6800  -58.2079 H   0  0  0  0  0  0  0  0  0  0  0  0
  -33.4394   -1.9877  -59.3440 H   0  0  0  0  0  0  0  0  0  0  0  0
  -33.4883    0.6181  -60.1280 H   0  0  0  0  0  0  0  0  0  0  0  0
  -32.7730   -0.6436  -61.0786 H   0  0  0  0  0  0  0  0  0  0  0  0
  -31.2810    1.2083  -59.1746 H   0  0  0  0  0  0  0  0  0  0  0  0
  -31.2091    1.2643  -60.9156 H   0  0  0  0  0  0  0  0  0  0  0  0
  -29.8687   -0.6432  -61.0922 H   0  0  0  0  0  0  0  0  0  0  0  0
  -29.2766    0.1237  -59.6589 H   0  0  0  0  0  0  0  0  0  0  0  0
  1  2  1  0
  2  3  2  0
  2  8  1  0
  3  4  1  0
  3 15  1  0
  4  5  1  0
  4  7  2  0
  5  6  1  0
  6 23  1  0
  6 24  1  0
  6 25  1  0
  8  9  2  0
  8 26  1  0
  9 10  1  0
  9 16  1  0
 10 11  1  0
 10 15  2  0
 11 12  2  0
 11 13  1  0
 11 14  2  0
 13 27  1  0
 13 28  1  0
 15 29  1  0
 16 17  1  0
 17 18  1  0
 17 22  1  0
 17 30  1  0
 18 19  1  0
 18 31  1  0
 18 32  1  0
 19 20  1  0
 19 33  1  0
 19 34  1  0
 20 21  1  0
 20 35  1  0
 20 36  1  0
 21 22  1  0
 21 37  1  0
 21 38  1  0
 22 39  1  0
 22 40  1  0
M  END
$$$$
