2QE4_ligand
     RDKit          3D

 24 27  0  0  1  0  0  0  0  0999 V2000
   17.0967   14.5858   32.9968 C   0  0  0  0  0  0  0  0  0  0  0  0
   17.1749   13.2050   32.8283 C   0  0  0  0  0  0  0  0  0  0  0  0
   18.2471   12.6453   32.1218 C   0  0  0  0  0  0  0  0  0  0  0  0
   19.2441   13.4882   31.6044 C   0  0  0  0  0  0  0  0  0  0  0  0
   20.2516   12.8920   30.8622 O   0  0  0  0  0  0  0  0  0  0  0  0
   21.4642   13.6501   30.7774 C   0  0  2  0  0  0  0  0  0  0  0  0
   21.1407   15.0531   30.2126 C   0  0  1  0  0  0  0  0  0  0  0  0
   20.4359   15.0740   28.8407 C   0  0  0  0  0  0  0  0  0  0  0  0
   19.6419   16.3834   28.7940 C   0  0  0  0  0  0  0  0  0  0  0  0
   19.6405   16.9268   30.2284 C   0  0  0  0  0  0  0  0  0  0  0  0
   20.1999   15.8204   31.1386 C   0  0  1  0  0  0  0  0  0  0  0  0
   19.1562   14.8893   31.7569 C   0  0  0  0  0  0  0  0  0  0  0  0
   18.0829   15.4077   32.4739 C   0  0  0  0  0  0  0  0  0  0  0  0
   22.5389   12.9740   29.9329 C   0  0  0  0  0  0  0  0  0  0  0  0
   22.2533   11.8385   29.1677 C   0  0  0  0  0  0  0  0  0  0  0  0
   23.2236   11.3145   28.3200 C   0  0  0  0  0  0  0  0  0  0  0  0
   24.4615   11.9438   28.2165 C   0  0  0  0  0  0  0  0  0  0  0  0
   25.3722   11.5025   27.2998 O   0  0  0  0  0  0  0  0  0  0  0  0
   24.7694   13.0444   29.0112 C   0  0  0  0  0  0  0  0  0  0  0  0
   23.8125   13.5496   29.8805 C   0  0  0  0  0  0  0  0  0  0  0  0
   18.2511   11.1457   31.8386 C   0  0  0  0  0  0  0  0  0  0  0  0
   18.8601   10.4005   32.8881 O   0  0  0  0  0  0  0  0  0  0  0  0
   20.2799   10.4127   32.8878 C   0  0  0  0  0  0  0  0  0  0  0  0
   16.0432   15.1727   33.6354 O   0  0  0  0  0  0  0  0  0  0  0  0
  1  2  2  0
  1 13  1  0
  1 24  1  0
  2  3  1  0
  3  4  2  0
  3 21  1  0
  4  5  1  0
  4 12  1  0
  5  6  1  0
  6  7  1  0
  6 14  1  6
  7  8  1  6
  7 11  1  0
  8  9  1  0
  9 10  1  0
 11 10  1  6
 11 12  1  0
 12 13  2  0
 14 15  2  0
 14 20  1  0
 15 16  1  0
 16 17  2  0
 17 18  1  0
 17 19  1  0
 19 20  2  0
 21 22  1  0
 22 23  1  0
M  END
$$$$
