7WUY - prepared_ligand2
     RDKit          3D

 58 62  0  0  1  0  0  0  0  0999 V2000
   16.8217  153.5443   27.9238 C   0  0  2  0  0  0  0  0  0  0  0  0
   16.2415  152.1650   27.7145 C   0  0  1  0  0  0  0  0  0  0  0  0
   14.7687  151.9943   27.2376 C   0  0  1  0  0  0  0  0  0  0  0  0
   13.9701  153.3302   27.0984 C   0  0  0  0  0  0  0  0  0  0  0  0
   14.7960  154.5458   26.6715 C   0  0  0  0  0  0  0  0  0  0  0  0
   15.9348  154.7792   27.6639 C   0  0  2  0  0  0  0  0  0  0  0  0
   14.7742  149.6566   25.8729 C   0  0  0  0  0  0  0  0  0  0  0  0
   14.4492  149.0096   24.6900 C   0  0  0  0  0  0  0  0  0  0  0  0
   14.3330  149.7494   23.4235 C   0  0  0  0  0  0  0  0  0  0  0  0
   14.5815  151.7280   24.7234 C   0  0  0  0  0  0  0  0  0  0  0  0
   14.7492  151.1441   25.9316 C   0  0  0  0  0  0  0  0  0  0  0  0
   13.9748  147.6053   24.6663 C   0  0  0  0  0  0  0  0  0  0  0  0
   10.9515  143.7111   25.2358 C   0  0  0  0  0  0  0  0  0  0  0  0
   10.9664  143.2819   26.7054 C   0  0  0  0  0  0  0  0  0  0  0  0
   12.2358  143.7686   27.4239 C   0  0  0  0  0  0  0  0  0  0  0  0
   12.5666  145.2588   27.2090 C   0  0  0  0  0  0  0  0  0  0  0  0
   12.5195  145.6925   25.7197 C   0  0  1  0  0  0  0  0  0  0  0  0
   11.1782  145.2233   25.0911 C   0  0  2  0  0  0  0  0  0  0  0  0
   12.7474  147.2516   25.5572 C   0  0  2  0  0  0  0  0  0  0  0  0
   11.4659  148.0750   25.1197 C   0  0  1  0  0  0  0  0  0  0  0  0
   10.0917  146.0911   25.6985 C   0  0  0  0  0  0  0  0  0  0  0  0
   10.2390  147.4206   25.7334 C   0  0  0  0  0  0  0  0  0  0  0  0
   11.4576  149.5822   25.4536 C   0  0  0  0  0  0  0  0  0  0  0  0
   14.4298  151.0904   23.5368 N   0  0  0  0  0  0  0  0  0  0  0  0
   14.1475  149.2584   22.3101 O   0  0  0  0  0  0  0  0  0  0  0  0
   15.0978  149.0071   26.9469 O   0  0  0  0  0  0  0  0  0  0  0  0
   14.4838  146.7668   23.9220 O   0  0  0  0  0  0  0  0  0  0  0  0
   17.1484  152.7528   26.8129 O   0  0  0  0  0  0  0  0  0  0  0  0
   16.7553  155.8116   27.1860 O   0  0  0  0  0  0  0  0  0  0  0  0
   14.1214  151.3406   28.3179 O   0  0  0  0  0  0  0  0  0  0  0  0
   17.6187  153.6918   28.6528 H   0  0  0  0  0  0  0  0  0  0  0  0
   16.6481  151.3084   28.2513 H   0  0  0  0  0  0  0  0  0  0  0  0
   13.5380  153.5978   28.0633 H   0  0  0  0  0  0  0  0  0  0  0  0
   13.1029  153.2050   26.4496 H   0  0  0  0  0  0  0  0  0  0  0  0
   14.1545  155.4279   26.6249 H   0  0  0  0  0  0  0  0  0  0  0  0
   15.2026  154.4227   25.6686 H   0  0  0  0  0  0  0  0  0  0  0  0
   15.5202  155.1235   28.6125 H   0  0  0  0  0  0  0  0  0  0  0  0
   14.4906  152.7869   24.5544 H   0  0  0  0  0  0  0  0  0  0  0  0
   10.0324  143.3995   24.7393 H   0  0  0  0  0  0  0  0  0  0  0  0
   11.7606  143.1983   24.7200 H   0  0  0  0  0  0  0  0  0  0  0  0
   10.8989  142.1975   26.7730 H   0  0  0  0  0  0  0  0  0  0  0  0
   10.0824  143.6732   27.2096 H   0  0  0  0  0  0  0  0  0  0  0  0
   13.0902  143.1700   27.1216 H   0  0  0  0  0  0  0  0  0  0  0  0
   12.0888  143.5903   28.4796 H   0  0  0  0  0  0  0  0  0  0  0  0
   13.5360  145.5065   27.6408 H   0  0  0  0  0  0  0  0  0  0  0  0
   11.8486  145.8501   27.7790 H   0  0  0  0  0  0  0  0  0  0  0  0
   13.3027  145.1107   25.2346 H   0  0  0  0  0  0  0  0  0  0  0  0
   11.2138  145.4284   24.0265 H   0  0  0  0  0  0  0  0  0  0  0  0
   12.9892  147.6077   26.5561 H   0  0  0  0  0  0  0  0  0  0  0  0
   11.3361  147.9945   24.0399 H   0  0  0  0  0  0  0  0  0  0  0  0
    9.2238  145.6486   26.1599 H   0  0  0  0  0  0  0  0  0  0  0  0
    9.4616  148.0126   26.1949 H   0  0  0  0  0  0  0  0  0  0  0  0
   10.4477  149.9915   25.5132 H   0  0  0  0  0  0  0  0  0  0  0  0
   11.9623  149.7822   26.3961 H   0  0  0  0  0  0  0  0  0  0  0  0
   11.9543  150.1698   24.6863 H   0  0  0  0  0  0  0  0  0  0  0  0
   14.3253  151.6136   22.6786 H   0  0  0  0  0  0  0  0  0  0  0  0
   17.3974  156.0132   27.8717 H   0  0  0  0  0  0  0  0  0  0  0  0
   14.5094  150.4635   28.4021 H   0  0  0  0  0  0  0  0  0  0  0  0
  1  2  1  0
  1  6  1  0
  1 28  1  0
  1 31  1  1
  2  3  1  0
  2 28  1  0
  2 32  1  1
  3  4  1  0
  3 11  1  0
  3 30  1  1
  4  5  1  0
  4 33  1  0
  4 34  1  0
  5  6  1  0
  5 35  1  0
  5 36  1  0
  6 29  1  0
  6 37  1  1
  7  8  2  0
  7 11  1  0
  7 26  1  0
  8  9  1  0
  8 12  1  0
  9 24  1  0
  9 25  2  0
 10 11  2  0
 10 24  1  0
 10 38  1  0
 12 19  1  0
 12 27  2  0
 13 14  1  0
 13 18  1  0
 13 39  1  0
 13 40  1  0
 14 15  1  0
 14 41  1  0
 14 42  1  0
 15 16  1  0
 15 43  1  0
 15 44  1  0
 16 17  1  0
 16 45  1  0
 16 46  1  0
 17 18  1  0
 17 19  1  0
 17 47  1  6
 18 21  1  0
 18 48  1  6
 19 20  1  0
 19 49  1  1
 20 22  1  0
 20 23  1  0
 20 50  1  6
 21 22  2  0
 21 51  1  0
 22 52  1  0
 23 53  1  0
 23 54  1  0
 23 55  1  0
 24 56  1  0
 29 57  1  0
 30 58  1  0
M  CHG  1  26  -1
M  END
$$$$
