6YQV - prepared_ligand
     RDKit          3D

 14 14  0  0  1  0  0  0  0  0999 V2000
   11.1600  -10.5421   23.9384 C   0  0  0  0  0  0  0  0  0  0  0  0
   12.2076   -8.0537   24.6351 Cl  0  0  0  0  0  0  0  0  0  0  0  0
   12.0255   -9.4835   23.7030 C   0  0  0  0  0  0  0  0  0  0  0  0
   11.2832  -11.5643   22.9924 C   0  0  0  0  0  0  0  0  0  0  0  0
   12.9861   -9.7363   22.2808 S   0  0  0  0  0  0  0  0  0  0  0  0
   12.2520  -11.2901   22.0354 C   0  0  0  0  0  0  0  0  0  0  0  0
   12.7763  -12.4191   20.7281 S   0  0  0  0  0  0  0  0  0  0  0  0
   13.6259  -11.6675   19.7964 O   0  0  0  0  0  0  0  0  0  0  0  0
   11.5944  -13.1669   20.2941 O   0  0  0  0  0  0  0  0  0  0  0  0
   13.7797  -13.4967   21.6661 N   0  0  0  0  0  0  0  0  0  0  0  0
   10.4710  -10.5761   24.7680 H   0  0  0  0  0  0  0  0  0  0  0  0
   10.7003  -12.4730   23.0145 H   0  0  0  0  0  0  0  0  0  0  0  0
   13.4076  -14.4365   21.8246 H   0  0  0  0  0  0  0  0  0  0  0  0
   14.7935  -13.4251   21.5358 H   0  0  0  0  0  0  0  0  0  0  0  0
  1  3  2  0
  1  4  1  0
  1 11  1  0
  2  3  1  0
  3  5  1  0
  4  6  2  0
  4 12  1  0
  5  6  1  0
  6  7  1  0
  7  8  2  0
  7  9  2  0
  7 10  1  0
 10 13  1  0
 10 14  1  0
M  END
$$$$
