4CRA_ligand
     RDKit          3D

 38 42  0  0  1  0  0  0  0  0999 V2000
  -26.4329  -55.5905   -9.7510 C   0  0  0  0  0  0  0  0  0  0  0  0
  -25.4608  -56.2965  -10.0245 O   0  0  0  0  0  0  0  0  0  0  0  0
  -27.3188  -55.9147   -8.5653 C   0  0  0  0  0  0  0  0  0  0  0  0
  -28.5058  -55.2070   -8.3185 C   0  0  0  0  0  0  0  0  0  0  0  0
  -29.3366  -55.5465   -7.2568 C   0  0  0  0  0  0  0  0  0  0  0  0
  -29.0027  -56.6146   -6.4306 C   0  0  0  0  0  0  0  0  0  0  0  0
  -27.8115  -57.3471   -6.6385 C   0  0  0  0  0  0  0  0  0  0  0  0
  -26.9809  -56.9711   -7.7053 C   0  0  0  0  0  0  0  0  0  0  0  0
  -27.4392  -58.5200   -5.7561 C   0  0  0  0  0  0  0  0  0  0  0  0
  -28.4244  -58.8018   -4.7046 C   0  0  0  0  0  0  0  0  0  0  0  0
  -29.5405  -58.0565   -4.5750 C   0  0  0  0  0  0  0  0  0  0  0  0
  -30.4455  -58.2275   -3.6826 O   0  0  0  0  0  0  0  0  0  0  0  0
  -29.8560  -56.9944   -5.3820 N   0  0  0  0  0  0  0  0  0  0  0  0
  -26.4112  -59.1762   -5.9184 O   0  0  0  0  0  0  0  0  0  0  0  0
  -26.7792  -54.5184  -10.4840 N   0  0  0  0  0  0  0  0  0  0  0  0
  -26.1032  -54.0485  -11.6981 C   0  0  2  0  0  0  0  0  0  0  0  0
  -25.2747  -52.7774  -11.4302 C   0  0  0  0  0  0  0  0  0  0  0  0
  -25.5611  -52.0304  -10.4943 O   0  0  0  0  0  0  0  0  0  0  0  0
  -27.1766  -53.7445  -12.7671 C   0  0  0  0  0  0  0  0  0  0  0  0
  -28.0992  -54.8828  -13.1632 C   0  0  0  0  0  0  0  0  0  0  0  0
  -29.4932  -54.7629  -12.9788 C   0  0  0  0  0  0  0  0  0  0  0  0
  -27.5763  -56.0648  -13.7295 C   0  0  0  0  0  0  0  0  0  0  0  0
  -30.3317  -55.7968  -13.3676 C   0  0  0  0  0  0  0  0  0  0  0  0
  -28.4346  -57.0893  -14.1055 C   0  0  0  0  0  0  0  0  0  0  0  0
  -29.8066  -56.9534  -13.9304 C   0  0  0  0  0  0  0  0  0  0  0  0
  -19.6176  -50.7886  -11.7532 C   0  0  0  0  0  0  0  0  0  0  0  0
  -19.1529  -52.1224  -11.7035 C   0  0  0  0  0  0  0  0  0  0  0  0
  -20.0458  -53.1803  -11.8153 C   0  0  0  0  0  0  0  0  0  0  0  0
  -21.4048  -52.9431  -11.9807 C   0  0  0  0  0  0  0  0  0  0  0  0
  -21.9110  -51.6402  -12.0438 C   0  0  0  0  0  0  0  0  0  0  0  0
  -21.0147  -50.5347  -11.9306 C   0  0  0  0  0  0  0  0  0  0  0  0
  -18.7096  -49.7832  -11.6215 N   0  0  0  0  0  0  0  0  0  0  0  0
  -19.1496  -48.5054  -11.6643 C   0  0  0  0  0  0  0  0  0  0  0  0
  -20.4841  -48.1621  -11.8413 C   0  0  0  0  0  0  0  0  0  0  0  0
  -18.2016  -47.5033  -11.5199 N   0  0  0  0  0  0  0  0  0  0  0  0
  -21.4266  -49.1721  -11.9754 C   0  0  0  0  0  0  0  0  0  0  0  0
  -23.4046  -51.3571  -12.2070 C   0  0  0  0  0  0  0  0  0  0  0  0
  -24.2776  -52.5270  -12.2910 N   0  0  0  0  0  0  0  0  0  0  0  0
  1  2  2  0
  1  3  1  0
  1 15  1  0
  3  4  2  0
  3  8  1  0
  4  5  1  0
  5  6  2  0
  6  7  1  0
  6 13  1  0
  7  8  2  0
  7  9  1  0
  9 10  1  0
  9 14  2  0
 10 11  2  0
 11 12  1  0
 11 13  1  0
 15 16  1  0
 16 17  1  0
 16 19  1  6
 17 18  2  0
 17 38  1  0
 19 20  1  0
 20 21  2  0
 20 22  1  0
 21 23  1  0
 22 24  2  0
 23 25  2  0
 24 25  1  0
 26 27  2  0
 26 31  1  0
 26 32  1  0
 27 28  1  0
 28 29  2  0
 29 30  1  0
 30 31  2  0
 30 37  1  0
 31 36  1  0
 32 33  2  0
 33 34  1  0
 33 35  1  0
 34 36  2  0
 37 38  1  0
M  CHG  1  12  -1
M  END
$$$$
