7TXK - prepared_ligand3
     RDKit          3D

 30 30  0  0  1  0  0  0  0  0999 V2000
   12.7496   60.5162   66.0687 O   0  0  0  0  0  0  0  0  0  0  0  0
   13.2701   61.3034   65.2518 C   0  0  0  0  0  0  0  0  0  0  0  0
   13.6998   60.9275   64.1413 O   0  0  0  0  0  0  0  0  0  0  0  0
   13.3177   62.8140   65.6485 C   0  0  1  0  0  0  0  0  0  0  0  0
   14.6873   63.4954   65.2545 N   0  0  0  0  0  0  0  0  0  0  0  0
   15.8989   62.6505   65.7387 C   0  0  0  0  0  0  0  0  0  0  0  0
   14.8394   63.8042   63.7404 C   0  0  0  0  0  0  0  0  0  0  0  0
   14.8116   64.8511   66.0015 C   0  0  0  0  0  0  0  0  0  0  0  0
   12.0834   63.5645   65.0474 C   0  0  0  0  0  0  0  0  0  0  0  0
   10.7375   63.1142   65.5884 C   0  0  0  0  0  0  0  0  0  0  0  0
    9.6312   63.3472   64.8621 N   0  0  0  0  0  0  0  0  0  0  0  0
    8.5172   62.8145   65.4255 C   0  0  0  0  0  0  0  0  0  0  0  0
    6.9564   62.8059   64.8872 S   0  0  0  0  0  0  0  0  0  0  0  0
    9.0213   62.2722   66.5578 N   0  0  0  0  0  0  0  0  0  0  0  0
   10.3416   62.4389   66.6605 C   0  0  0  0  0  0  0  0  0  0  0  0
   13.3066   62.8927   66.7387 H   0  0  0  0  0  0  0  0  0  0  0  0
   16.8012   63.2544   65.6797 H   0  0  0  0  0  0  0  0  0  0  0  0
   15.7125   62.3617   66.7747 H   0  0  0  0  0  0  0  0  0  0  0  0
   16.0058   61.7732   65.1011 H   0  0  0  0  0  0  0  0  0  0  0  0
   15.7837   64.3208   63.5994 H   0  0  0  0  0  0  0  0  0  0  0  0
   14.8501   62.8831   63.1640 H   0  0  0  0  0  0  0  0  0  0  0  0
   14.0209   64.4531   63.4302 H   0  0  0  0  0  0  0  0  0  0  0  0
   15.7857   65.2841   65.7712 H   0  0  0  0  0  0  0  0  0  0  0  0
   14.0322   65.5202   65.6486 H   0  0  0  0  0  0  0  0  0  0  0  0
   14.7162   64.6693   67.0735 H   0  0  0  0  0  0  0  0  0  0  0  0
   12.0679   63.4508   63.9630 H   0  0  0  0  0  0  0  0  0  0  0  0
   12.1351   64.6343   65.2344 H   0  0  0  0  0  0  0  0  0  0  0  0
    9.6053   63.8041   63.9595 H   0  0  0  0  0  0  0  0  0  0  0  0
    8.4427   61.7524   67.2065 H   0  0  0  0  0  0  0  0  0  0  0  0
   10.8735   62.0197   67.5009 H   0  0  0  0  0  0  0  0  0  0  0  0
  1  2  1  0
  2  3  2  0
  2  4  1  0
  4  5  1  0
  4  9  1  0
  4 16  1  1
  5  6  1  0
  5  7  1  0
  5  8  1  0
  6 17  1  0
  6 18  1  0
  6 19  1  0
  7 20  1  0
  7 21  1  0
  7 22  1  0
  8 23  1  0
  8 24  1  0
  8 25  1  0
  9 10  1  0
  9 26  1  0
  9 27  1  0
 10 11  1  0
 10 15  2  0
 11 12  1  0
 11 28  1  0
 12 13  2  0
 12 14  1  0
 14 15  1  0
 14 29  1  0
 15 30  1  0
M  CHG  2   1  -1   5   1
M  END
$$$$
