7K0V - prepared_ligand5
     RDKit          3D

 59 61  0  0  1  0  0  0  0  0999 V2000
    8.7194  -33.0827  -33.2685 C   0  0  0  0  0  0  0  0  0  0  0  0
    9.5982  -33.1656  -34.3498 C   0  0  0  0  0  0  0  0  0  0  0  0
   10.9023  -33.6361  -34.1410 C   0  0  0  0  0  0  0  0  0  0  0  0
   11.3127  -34.0661  -32.8737 C   0  0  0  0  0  0  0  0  0  0  0  0
   12.3506  -36.8327  -32.1351 C   0  0  0  0  0  0  0  0  0  0  0  0
   15.0700  -37.0413  -31.5627 C   0  0  0  0  0  0  0  0  0  0  0  0
   18.2874  -38.7775  -30.5945 C   0  0  0  0  0  0  0  0  0  0  0  0
    8.6073  -33.1905  -39.1705 C   0  0  0  0  0  0  0  0  0  0  0  0
    7.1530  -34.5589  -40.8977 C   0  0  0  0  0  0  0  0  0  0  0  0
   10.7856  -34.4505  -30.3861 C   0  0  0  0  0  0  0  0  0  0  0  0
   12.8799  -38.0557  -31.7333 C   0  0  0  0  0  0  0  0  0  0  0  0
   14.2323  -38.1570  -31.4297 C   0  0  0  0  0  0  0  0  0  0  0  0
   14.5397  -35.8116  -31.9899 C   0  0  0  0  0  0  0  0  0  0  0  0
   16.5502  -37.2191  -31.2502 C   0  0  0  0  0  0  0  0  0  0  0  0
   15.9512  -39.5211  -30.6994 C   0  0  0  0  0  0  0  0  0  0  0  0
   10.4048  -34.0199  -31.7966 C   0  0  0  0  0  0  0  0  0  0  0  0
    9.3186  -33.3838  -36.7833 C   0  0  0  0  0  0  0  0  0  0  0  0
    7.3462  -34.0376  -39.4408 C   0  0  0  0  0  0  0  0  0  0  0  0
    7.1873  -33.3992  -41.9225 C   0  0  0  0  0  0  0  0  0  0  0  0
    9.1213  -33.5086  -32.0055 C   0  0  0  0  0  0  0  0  0  0  0  0
    8.2477  -35.5895  -41.2594 C   0  0  0  0  0  0  0  0  0  0  0  0
    5.7758  -35.2553  -40.9904 C   0  0  0  0  0  0  0  0  0  0  0  0
   13.1680  -35.7058  -32.2708 C   0  0  0  0  0  0  0  0  0  0  0  0
   15.3371  -34.7265  -32.1533 F   0  0  0  0  0  0  0  0  0  0  0  0
    7.4737  -32.5856  -33.4346 F   0  0  0  0  0  0  0  0  0  0  0  0
   16.8653  -38.5030  -30.8526 N   0  0  0  0  0  0  0  0  0  0  0  0
   14.7059  -39.3928  -30.9716 N   0  0  0  0  0  0  0  0  0  0  0  0
    9.1271  -32.7576  -35.6088 N   0  0  0  0  0  0  0  0  0  0  0  0
    8.7166  -32.7256  -37.7876 N   0  0  0  0  0  0  0  0  0  0  0  0
   12.6457  -34.4849  -32.7346 N   0  0  0  0  0  0  0  0  0  0  0  0
   17.3860  -36.3171  -31.3490 O   0  0  0  0  0  0  0  0  0  0  0  0
    9.9399  -34.4360  -36.9269 O   0  0  0  0  0  0  0  0  0  0  0  0
   11.5974  -33.6754  -34.9679 H   0  0  0  0  0  0  0  0  0  0  0  0
   11.2967  -36.7668  -32.3500 H   0  0  0  0  0  0  0  0  0  0  0  0
   18.4733  -39.8240  -30.3473 H   0  0  0  0  0  0  0  0  0  0  0  0
   18.8936  -38.5410  -31.4704 H   0  0  0  0  0  0  0  0  0  0  0  0
   18.6537  -38.1790  -29.7605 H   0  0  0  0  0  0  0  0  0  0  0  0
    8.6082  -32.3103  -39.8131 H   0  0  0  0  0  0  0  0  0  0  0  0
    9.4964  -33.7415  -39.4713 H   0  0  0  0  0  0  0  0  0  0  0  0
   10.0923  -34.0564  -29.6444 H   0  0  0  0  0  0  0  0  0  0  0  0
   10.7799  -35.5343  -30.3025 H   0  0  0  0  0  0  0  0  0  0  0  0
   11.7803  -34.0915  -30.1196 H   0  0  0  0  0  0  0  0  0  0  0  0
   12.2343  -38.9145  -31.6404 H   0  0  0  0  0  0  0  0  0  0  0  0
   16.3224  -40.4642  -30.3141 H   0  0  0  0  0  0  0  0  0  0  0  0
    6.4717  -33.4539  -39.1466 H   0  0  0  0  0  0  0  0  0  0  0  0
    7.3685  -34.8943  -38.7652 H   0  0  0  0  0  0  0  0  0  0  0  0
    6.9413  -33.7445  -42.9279 H   0  0  0  0  0  0  0  0  0  0  0  0
    6.4744  -32.6147  -41.6647 H   0  0  0  0  0  0  0  0  0  0  0  0
    8.1744  -32.9401  -41.9855 H   0  0  0  0  0  0  0  0  0  0  0  0
    8.4242  -33.4408  -31.1832 H   0  0  0  0  0  0  0  0  0  0  0  0
    8.0797  -36.0250  -42.2446 H   0  0  0  0  0  0  0  0  0  0  0  0
    9.2422  -35.1439  -41.2739 H   0  0  0  0  0  0  0  0  0  0  0  0
    8.2691  -36.4125  -40.5445 H   0  0  0  0  0  0  0  0  0  0  0  0
    5.5232  -35.5050  -42.0194 H   0  0  0  0  0  0  0  0  0  0  0  0
    5.7500  -36.1815  -40.4145 H   0  0  0  0  0  0  0  0  0  0  0  0
    4.9738  -34.6205  -40.6157 H   0  0  0  0  0  0  0  0  0  0  0  0
    8.4784  -31.9824  -35.6054 H   0  0  0  0  0  0  0  0  0  0  0  0
    8.3683  -31.7943  -37.6019 H   0  0  0  0  0  0  0  0  0  0  0  0
   13.3146  -33.9109  -33.2297 H   0  0  0  0  0  0  0  0  0  0  0  0
  1  2  2  0
  1 20  1  0
  1 25  1  0
  2  3  1  0
  2 28  1  0
  3  4  2  0
  3 33  1  0
  4 16  1  0
  4 30  1  0
  5 11  2  0
  5 23  1  0
  5 34  1  0
  6 12  2  0
  6 13  1  0
  6 14  1  0
  7 26  1  0
  7 35  1  0
  7 36  1  0
  7 37  1  0
  8 18  1  0
  8 29  1  0
  8 38  1  0
  8 39  1  0
  9 18  1  0
  9 19  1  0
  9 21  1  0
  9 22  1  0
 10 16  1  0
 10 40  1  0
 10 41  1  0
 10 42  1  0
 11 12  1  0
 11 43  1  0
 12 27  1  0
 13 23  2  0
 13 24  1  0
 14 26  1  0
 14 31  2  0
 15 26  1  0
 15 27  2  0
 15 44  1  0
 16 20  2  0
 17 28  1  0
 17 29  1  0
 17 32  2  0
 18 45  1  0
 18 46  1  0
 19 47  1  0
 19 48  1  0
 19 49  1  0
 20 50  1  0
 21 51  1  0
 21 52  1  0
 21 53  1  0
 22 54  1  0
 22 55  1  0
 22 56  1  0
 23 30  1  0
 28 57  1  0
 29 58  1  0
 30 59  1  0
M  END
$$$$
