7ODY - prepared_ligand4
     RDKit          3D

 39 41  0  0  1  0  0  0  0  0999 V2000
   14.9858  -22.8160  -10.8394 O   0  0  0  0  0  0  0  0  0  0  0  0
   15.6497  -23.8530   -9.9127 P   0  0  0  0  0  0  0  0  0  0  0  0
   14.7015  -25.0062   -9.5657 O   0  0  0  0  0  0  0  0  0  0  0  0
   16.9886  -24.3616  -10.4641 O   0  0  0  0  0  0  0  0  0  0  0  0
   15.9907  -23.0551   -8.4078 O   0  0  0  0  0  0  0  0  0  0  0  0
   15.4229  -21.6528   -7.6335 P   0  0  2  0  0  0  0  0  0  0  0  0
   15.1560  -20.6304   -8.7132 O   0  0  0  0  0  0  0  0  0  0  0  0
   16.3088  -21.3817   -6.4426 O   0  0  0  0  0  0  0  0  0  0  0  0
   13.9283  -22.2762   -7.0452 O   0  0  0  0  0  0  0  0  0  0  0  0
   12.8327  -22.3473   -7.9414 C   0  0  0  0  0  0  0  0  0  0  0  0
   11.7813  -23.3214   -7.3780 C   0  0  1  0  0  0  0  0  0  0  0  0
   11.3655  -22.8346   -6.1038 O   0  0  0  0  0  0  0  0  0  0  0  0
   10.4745  -23.3632   -8.1717 C   0  0  1  0  0  0  0  0  0  0  0  0
    9.7932  -24.6002   -8.0488 O   0  0  0  0  0  0  0  0  0  0  0  0
    9.6869  -22.2170   -7.5804 C   0  0  0  0  0  0  0  0  0  0  0  0
   10.0499  -22.3619   -6.1133 C   0  0  2  0  0  0  0  0  0  0  0  0
    9.9294  -21.0784   -5.3289 N   0  0  0  0  0  0  0  0  0  0  0  0
   10.8789  -20.2227   -4.8946 C   0  0  0  0  0  0  0  0  0  0  0  0
   10.3937  -19.1633   -4.2882 N   0  0  0  0  0  0  0  0  0  0  0  0
    9.0648  -19.3401   -4.3422 C   0  0  0  0  0  0  0  0  0  0  0  0
    8.7471  -20.5094   -4.9719 C   0  0  0  0  0  0  0  0  0  0  0  0
    7.5072  -21.0154   -5.2237 N   0  0  0  0  0  0  0  0  0  0  0  0
    6.5587  -20.2660   -4.7823 C   0  0  0  0  0  0  0  0  0  0  0  0
    5.2868  -20.6414   -4.9308 N   0  0  0  0  0  0  0  0  0  0  0  0
    6.7915  -19.0570   -4.1476 N   0  0  0  0  0  0  0  0  0  0  0  0
    8.0046  -18.4864   -3.8481 C   0  0  0  0  0  0  0  0  0  0  0  0
    8.0991  -17.4239   -3.2389 O   0  0  0  0  0  0  0  0  0  0  0  0
   13.1566  -22.7047   -8.9176 H   0  0  0  0  0  0  0  0  0  0  0  0
   12.4204  -21.3484   -8.0797 H   0  0  0  0  0  0  0  0  0  0  0  0
   12.2266  -24.3137   -7.2816 H   0  0  0  0  0  0  0  0  0  0  0  0
   10.6569  -23.1693   -9.2272 H   0  0  0  0  0  0  0  0  0  0  0  0
   10.1461  -25.1966   -8.7206 H   0  0  0  0  0  0  0  0  0  0  0  0
    8.6086  -22.2817   -7.7324 H   0  0  0  0  0  0  0  0  0  0  0  0
   10.0457  -21.2539   -7.9471 H   0  0  0  0  0  0  0  0  0  0  0  0
    9.4236  -23.1112   -5.6256 H   0  0  0  0  0  0  0  0  0  0  0  0
   11.9261  -20.4352   -5.0585 H   0  0  0  0  0  0  0  0  0  0  0  0
    4.5258  -20.0975   -4.5387 H   0  0  0  0  0  0  0  0  0  0  0  0
    5.0716  -21.5037   -5.4088 H   0  0  0  0  0  0  0  0  0  0  0  0
    5.9881  -18.5208   -3.8464 H   0  0  0  0  0  0  0  0  0  0  0  0
  1  2  2  0
  2  3  1  0
  2  4  1  0
  2  5  1  0
  5  6  1  0
  6  7  2  0
  6  8  1  1
  6  9  1  0
  9 10  1  0
 10 11  1  0
 10 28  1  0
 10 29  1  0
 11 12  1  0
 11 13  1  0
 11 30  1  1
 12 16  1  0
 13 14  1  0
 13 15  1  0
 13 31  1  6
 14 32  1  0
 15 16  1  0
 15 33  1  0
 15 34  1  0
 16 17  1  0
 16 35  1  1
 17 18  1  0
 17 21  1  0
 18 19  2  0
 18 36  1  0
 19 20  1  0
 20 21  2  0
 20 26  1  0
 21 22  1  0
 22 23  2  0
 23 24  1  0
 23 25  1  0
 24 37  1  0
 24 38  1  0
 25 26  1  0
 25 39  1  0
 26 27  2  0
M  CHG  3   3  -1   4  -1   8  -1
M  END
$$$$
