1VSO_ligand
     RDKit          3D

 21 21  0  0  1  0  0  0  0  0999 V2000
   41.7834    5.3659    5.3187 N   0  0  0  0  0  0  0  0  0  0  0  0
   39.4381    6.1885    5.6793 C   0  0  0  0  0  0  0  0  0  0  0  0
   40.9695    4.9861    2.7280 O   0  0  0  0  0  0  0  0  0  0  0  0
   40.3000    5.0533    5.0728 C   0  0  1  0  0  0  0  0  0  0  0  0
   40.0490    4.8369    3.5609 C   0  0  0  0  0  0  0  0  0  0  0  0
   38.9020    4.4492    3.2462 O   0  0  0  0  0  0  0  0  0  0  0  0
   39.4861    6.2580    9.4106 O   0  0  0  0  0  0  0  0  0  0  0  0
   38.0163    4.0058    7.2023 O   0  0  0  0  0  0  0  0  0  0  0  0
   38.7729    5.0951    9.1605 N   0  0  0  0  0  0  0  0  0  0  0  0
   40.5894    8.1685    8.3815 C   0  0  0  0  0  0  0  0  0  0  0  0
   37.2601    3.0813    7.9800 C   0  0  0  0  0  0  0  0  0  0  0  0
   38.7006    5.0084    7.8526 C   0  0  0  0  0  0  0  0  0  0  0  0
   39.3489    6.0505    7.1882 C   0  0  0  0  0  0  0  0  0  0  0  0
   39.8241    6.8481    8.2336 C   0  0  0  0  0  0  0  0  0  0  0  0
   39.7397    9.1540    9.2137 C   0  0  0  0  0  0  0  0  0  0  0  0
   41.9193    7.9154    9.1112 C   0  0  0  0  0  0  0  0  0  0  0  0
   40.9119    8.8163    7.0252 C   0  0  0  0  0  0  0  0  0  0  0  0
   36.1015    2.1198    6.8385 P   0  0  0  0  0  0  0  0  0  0  0  0
   37.0733    1.3689    5.9145 O   0  0  0  0  0  0  0  0  0  0  0  0
   35.3261    1.2315    7.8272 O   0  0  0  0  0  0  0  0  0  0  0  0
   35.2874    3.2434    6.1716 O   0  0  0  0  0  0  0  0  0  0  0  0
  4  1  1  6
  2  4  1  0
  2 13  1  0
  3  5  1  0
  4  5  1  0
  5  6  2  0
  7  9  1  0
  7 14  1  0
  8 11  1  0
  8 12  1  0
  9 12  2  0
 10 14  1  0
 10 15  1  0
 10 16  1  0
 10 17  1  0
 11 18  1  0
 12 13  1  0
 13 14  2  0
 18 19  2  0
 18 20  1  0
 18 21  1  0
M  CHG  4   1   1   3  -1  20  -1  21  -1
M  END
$$$$
