7WN5 - prepared_ligand2
     RDKit          3D

 56 60  0  0  1  0  0  0  0  0999 V2000
  -18.3470  -12.5362  -11.5592 F   0  0  0  0  0  0  0  0  0  0  0  0
  -18.0386  -12.7402  -12.8609 C   0  0  0  0  0  0  0  0  0  0  0  0
  -17.6293  -14.0059  -13.2827 C   0  0  0  0  0  0  0  0  0  0  0  0
  -17.3149  -14.2263  -14.6230 C   0  0  0  0  0  0  0  0  0  0  0  0
  -16.9164  -15.4515  -15.0322 F   0  0  0  0  0  0  0  0  0  0  0  0
  -17.4151  -13.1821  -15.5416 C   0  0  0  0  0  0  0  0  0  0  0  0
  -17.8141  -11.9137  -15.1195 C   0  0  0  0  0  0  0  0  0  0  0  0
  -18.1260  -11.6854  -13.7751 C   0  0  0  0  0  0  0  0  0  0  0  0
  -18.4597  -10.4379  -13.2996 O   0  0  0  0  0  0  0  0  0  0  0  0
  -19.2971   -9.5749  -13.9770 C   0  0  0  0  0  0  0  0  0  0  0  0
  -20.4671  -10.0203  -14.5962 C   0  0  0  0  0  0  0  0  0  0  0  0
  -21.3267   -9.1104  -15.2097 C   0  0  0  0  0  0  0  0  0  0  0  0
  -21.0559   -7.7387  -15.2296 C   0  0  0  0  0  0  0  0  0  0  0  0
  -21.9680   -6.9209  -15.8561 N   0  0  0  0  0  0  0  0  0  0  0  0
  -21.9075   -5.3508  -15.8743 S   0  0  0  0  0  0  0  0  0  0  0  0
  -21.6056   -4.7686  -14.5633 O   0  0  0  0  0  0  0  0  0  0  0  0
  -23.0502   -4.7592  -16.5785 O   0  0  0  0  0  0  0  0  0  0  0  0
  -20.4088   -4.9379  -16.9607 C   0  0  0  0  0  0  0  0  0  0  0  0
  -20.5100   -5.5975  -18.3454 C   0  0  0  0  0  0  0  0  0  0  0  0
  -19.8701   -7.3121  -14.6089 C   0  0  0  0  0  0  0  0  0  0  0  0
  -18.9978   -8.2036  -13.9770 C   0  0  0  0  0  0  0  0  0  0  0  0
  -17.7839   -7.6923  -13.3099 C   0  0  0  0  0  0  0  0  0  0  0  0
  -16.8986   -6.8550  -13.8896 C   0  0  0  0  0  0  0  0  0  0  0  0
  -15.7281   -6.3655  -13.3401 N   0  0  0  0  0  0  0  0  0  0  0  0
  -14.8256   -5.5471  -14.1608 C   0  0  0  0  0  0  0  0  0  0  0  0
  -15.3390   -6.6238  -12.0311 C   0  0  0  0  0  0  0  0  0  0  0  0
  -14.3064   -6.1787  -11.5239 O   0  0  0  0  0  0  0  0  0  0  0  0
  -16.2900   -7.5042  -11.3466 C   0  0  0  0  0  0  0  0  0  0  0  0
  -16.3251   -8.0348  -10.0499 C   0  0  0  0  0  0  0  0  0  0  0  0
  -17.4325   -8.0209  -11.9476 C   0  0  0  0  0  0  0  0  0  0  0  0
  -18.1348   -8.8212  -11.1149 O   0  0  0  0  0  0  0  0  0  0  0  0
  -17.4372   -8.8703   -9.9547 C   0  0  0  0  0  0  0  0  0  0  0  0
  -17.9843   -9.7336   -8.9417 C   0  0  0  0  0  0  0  0  0  0  0  0
  -19.2348  -10.3276   -8.7904 C   0  0  0  0  0  0  0  0  0  0  0  0
  -19.3183  -11.0881   -7.7110 N   0  0  0  0  0  0  0  0  0  0  0  0
  -18.1351  -10.9967   -7.1551 C   0  0  0  0  0  0  0  0  0  0  0  0
  -17.2846  -10.1868   -7.8567 N   0  0  0  0  0  0  0  0  0  0  0  0
  -17.5533  -14.8158  -12.5720 H   0  0  0  0  0  0  0  0  0  0  0  0
  -17.1785  -13.3549  -16.5792 H   0  0  0  0  0  0  0  0  0  0  0  0
  -17.8753  -11.1052  -15.8307 H   0  0  0  0  0  0  0  0  0  0  0  0
  -20.7232  -11.0694  -14.5862 H   0  0  0  0  0  0  0  0  0  0  0  0
  -22.2307   -9.4881  -15.6661 H   0  0  0  0  0  0  0  0  0  0  0  0
  -19.5071   -5.2533  -16.4461 H   0  0  0  0  0  0  0  0  0  0  0  0
  -20.3673   -3.8551  -17.0276 H   0  0  0  0  0  0  0  0  0  0  0  0
  -19.6930   -5.2730  -18.9896 H   0  0  0  0  0  0  0  0  0  0  0  0
  -20.4611   -6.6837  -18.2716 H   0  0  0  0  0  0  0  0  0  0  0  0
  -21.4452   -5.3457  -18.8437 H   0  0  0  0  0  0  0  0  0  0  0  0
  -19.6219   -6.2645  -14.5656 H   0  0  0  0  0  0  0  0  0  0  0  0
  -17.0365   -6.5004  -14.8991 H   0  0  0  0  0  0  0  0  0  0  0  0
  -13.8550   -5.3463  -13.7059 H   0  0  0  0  0  0  0  0  0  0  0  0
  -14.6330   -6.0568  -15.1054 H   0  0  0  0  0  0  0  0  0  0  0  0
  -15.2899   -4.5893  -14.3940 H   0  0  0  0  0  0  0  0  0  0  0  0
  -15.6056   -7.8494   -9.2683 H   0  0  0  0  0  0  0  0  0  0  0  0
  -20.0724  -10.2109   -9.4631 H   0  0  0  0  0  0  0  0  0  0  0  0
  -17.8032  -11.4731   -6.2441 H   0  0  0  0  0  0  0  0  0  0  0  0
  -16.3261   -9.9690   -7.6186 H   0  0  0  0  0  0  0  0  0  0  0  0
  1  2  1  0
  2  3  2  0
  2  8  1  0
  3  4  1  0
  3 38  1  0
  4  5  1  0
  4  6  2  0
  6  7  1  0
  6 39  1  0
  7  8  2  0
  7 40  1  0
  8  9  1  0
  9 10  1  0
 10 11  2  0
 10 21  1  0
 11 12  1  0
 11 41  1  0
 12 13  2  0
 12 42  1  0
 13 14  1  0
 13 20  1  0
 14 15  1  0
 15 16  2  0
 15 17  2  0
 15 18  1  0
 18 19  1  0
 18 43  1  0
 18 44  1  0
 19 45  1  0
 19 46  1  0
 19 47  1  0
 20 21  2  0
 20 48  1  0
 21 22  1  0
 22 23  2  0
 22 30  1  0
 23 24  1  0
 23 49  1  0
 24 25  1  0
 24 26  1  0
 25 50  1  0
 25 51  1  0
 25 52  1  0
 26 27  2  0
 26 28  1  0
 28 29  1  0
 28 30  2  0
 29 32  2  0
 29 53  1  0
 30 31  1  0
 31 32  1  0
 32 33  1  0
 33 34  2  0
 33 37  1  0
 34 35  1  0
 34 54  1  0
 35 36  2  0
 36 37  1  0
 36 55  1  0
 37 56  1  0
M  CHG  1  14  -1
M  END
$$$$
