7B2C - prepared_ligand4
     RDKit          3D

 40 39  0  0  1  0  0  0  0  0999 V2000
   -5.9641   -3.2917   17.7322 N   0  0  0  0  0  0  0  0  0  0  0  0
   -6.8353    1.0636   16.6652 P   0  0  0  0  0  0  0  0  0  0  0  0
   -6.1674    1.5673   15.3782 O   0  0  0  0  0  0  0  0  0  0  0  0
   -8.3649    1.1786   16.6256 O   0  0  0  0  0  0  0  0  0  0  0  0
   -6.2209    1.6789   17.9318 O   0  0  0  0  0  0  0  0  0  0  0  0
   -6.5145   -0.6486   16.7514 O   0  0  0  0  0  0  0  0  0  0  0  0
   -5.1905   -1.1423   16.7363 C   0  0  1  0  0  0  0  0  0  0  0  0
   -5.2233   -1.4797   19.3351 C   0  0  0  0  0  0  0  0  0  0  0  0
   -6.0931   -1.9381   20.1130 O   0  0  0  0  0  0  0  0  0  0  0  0
   -4.4078   -0.5625   19.5713 O   0  0  0  0  0  0  0  0  0  0  0  0
   -5.0565   -2.1485   17.9147 C   0  0  1  0  0  0  0  0  0  0  0  0
   -4.9796   -1.7642   15.3428 C   0  0  0  0  0  0  0  0  0  0  0  0
   -4.4175   -4.8703   17.2610 O   0  0  0  0  0  0  0  0  0  0  0  0
   -5.5930   -4.5283   17.3865 C   0  0  0  0  0  0  0  0  0  0  0  0
   -6.7383   -5.5090   17.1521 C   0  0  0  0  0  0  0  0  0  0  0  0
   -6.2835   -6.9754   17.1133 C   0  0  0  0  0  0  0  0  0  0  0  0
   -7.4424   -7.9711   17.2189 C   0  0  0  0  0  0  0  0  0  0  0  0
   -8.4158   -7.9390   16.0302 C   0  0  0  0  0  0  0  0  0  0  0  0
   -7.8692   -8.5308   14.7206 C   0  0  0  0  0  0  0  0  0  0  0  0
   -7.7844  -10.0647   14.7465 C   0  0  0  0  0  0  0  0  0  0  0  0
   -7.2415  -10.6557   13.1301 S   0  0  0  0  0  0  0  0  0  0  0  0
   -6.9476   -3.0816   17.8400 H   0  0  0  0  0  0  0  0  0  0  0  0
   -4.4729   -0.3286   16.8588 H   0  0  0  0  0  0  0  0  0  0  0  0
   -4.0181   -2.4863   17.9026 H   0  0  0  0  0  0  0  0  0  0  0  0
   -4.0185   -2.2705   15.2684 H   0  0  0  0  0  0  0  0  0  0  0  0
   -5.7529   -2.4956   15.1082 H   0  0  0  0  0  0  0  0  0  0  0  0
   -5.0196   -0.9999   14.5673 H   0  0  0  0  0  0  0  0  0  0  0  0
   -7.2269   -5.2414   16.2150 H   0  0  0  0  0  0  0  0  0  0  0  0
   -7.4708   -5.3800   17.9456 H   0  0  0  0  0  0  0  0  0  0  0  0
   -5.5969   -7.1769   17.9361 H   0  0  0  0  0  0  0  0  0  0  0  0
   -5.7227   -7.1392   16.1955 H   0  0  0  0  0  0  0  0  0  0  0  0
   -7.9931   -7.7548   18.1328 H   0  0  0  0  0  0  0  0  0  0  0  0
   -7.0441   -8.9756   17.3471 H   0  0  0  0  0  0  0  0  0  0  0  0
   -8.7468   -6.9153   15.8651 H   0  0  0  0  0  0  0  0  0  0  0  0
   -9.3167   -8.4836   16.3020 H   0  0  0  0  0  0  0  0  0  0  0  0
   -6.8964   -8.1007   14.4815 H   0  0  0  0  0  0  0  0  0  0  0  0
   -8.5320   -8.2282   13.9118 H   0  0  0  0  0  0  0  0  0  0  0  0
   -8.7567  -10.5035   14.9691 H   0  0  0  0  0  0  0  0  0  0  0  0
   -7.0867  -10.4176   15.5049 H   0  0  0  0  0  0  0  0  0  0  0  0
   -8.3572  -10.3240   12.4725 H   0  0  0  0  0  0  0  0  0  0  0  0
  1 11  1  0
  1 14  1  0
  1 22  1  0
  2  3  2  0
  2  4  1  0
  2  5  1  0
  2  6  1  0
  6  7  1  0
  7 11  1  0
  7 12  1  0
  7 23  1  1
  8  9  1  0
  8 10  2  0
  8 11  1  0
 11 24  1  1
 12 25  1  0
 12 26  1  0
 12 27  1  0
 13 14  2  0
 14 15  1  0
 15 16  1  0
 15 28  1  0
 15 29  1  0
 16 17  1  0
 16 30  1  0
 16 31  1  0
 17 18  1  0
 17 32  1  0
 17 33  1  0
 18 19  1  0
 18 34  1  0
 18 35  1  0
 19 20  1  0
 19 36  1  0
 19 37  1  0
 20 21  1  0
 20 38  1  0
 20 39  1  0
 21 40  1  0
M  CHG  3   4  -1   5  -1   9  -1
M  END
$$$$
