2FVD_ligand
     RDKit          3D

 30 32  0  0  1  0  0  0  0  0999 V2000
    5.9959   26.3688    6.9170 N   0  0  0  0  0  0  0  0  0  0  0  0
    5.2073   26.1074    5.6818 C   0  0  0  0  0  0  0  0  0  0  0  0
    4.3759   27.3520    5.3017 C   0  0  0  0  0  0  0  0  0  0  0  0
    3.5002   27.8096    6.4834 C   0  0  0  0  0  0  0  0  0  0  0  0
    4.3408   28.0129    7.7648 C   0  0  0  0  0  0  0  0  0  0  0  0
    5.1737   26.7604    8.0901 C   0  0  0  0  0  0  0  0  0  0  0  0
    2.8223   29.0620    6.1451 N   0  0  0  0  0  0  0  0  0  0  0  0
    1.6610   29.4571    6.8251 C   0  0  0  0  0  0  0  0  0  0  0  0
    0.9239   28.5142    7.4634 N   0  0  0  0  0  0  0  0  0  0  0  0
   -0.1361   28.9458    8.1781 C   0  0  0  0  0  0  0  0  0  0  0  0
   -0.4851   30.2985    8.3025 C   0  0  0  0  0  0  0  0  0  0  0  0
    0.3179   31.1944    7.5606 C   0  0  0  0  0  0  0  0  0  0  0  0
    1.3802   30.7831    6.8182 N   0  0  0  0  0  0  0  0  0  0  0  0
   -1.6450   30.6975    9.1802 C   0  0  0  0  0  0  0  0  0  0  0  0
   -2.0884   31.8468    9.1988 O   0  0  0  0  0  0  0  0  0  0  0  0
   -2.2746   29.6596   10.0515 C   0  0  0  0  0  0  0  0  0  0  0  0
   -3.5854   29.2392    9.7797 C   0  0  0  0  0  0  0  0  0  0  0  0
   -4.1531   28.2052   10.5223 C   0  0  0  0  0  0  0  0  0  0  0  0
   -3.4229   27.5754   11.5218 C   0  0  0  0  0  0  0  0  0  0  0  0
   -2.1255   27.9895   11.8003 C   0  0  0  0  0  0  0  0  0  0  0  0
   -1.5367   29.0451   11.0843 C   0  0  0  0  0  0  0  0  0  0  0  0
   -0.2512   29.4971   11.3328 O   0  0  0  0  0  0  0  0  0  0  0  0
    0.4775   28.9533   12.4245 C   0  0  0  0  0  0  0  0  0  0  0  0
   -4.3074   29.8105    8.7844 F   0  0  0  0  0  0  0  0  0  0  0  0
   -5.4068   27.7850   10.2600 F   0  0  0  0  0  0  0  0  0  0  0  0
    0.0942   32.5683    7.5584 N   0  0  0  0  0  0  0  0  0  0  0  0
    7.2580   25.1765    7.2666 S   0  0  0  0  0  0  0  0  0  0  0  0
    6.3142   23.6483    7.8274 C   0  0  0  0  0  0  0  0  0  0  0  0
    8.0217   25.6544    8.4221 O   0  0  0  0  0  0  0  0  0  0  0  0
    7.9394   24.8528    6.0089 O   0  0  0  0  0  0  0  0  0  0  0  0
  1  2  1  0
  1  6  1  0
  1 27  1  0
  2  3  1  0
  3  4  1  0
  4  5  1  0
  4  7  1  0
  5  6  1  0
  7  8  1  0
  8  9  2  0
  8 13  1  0
  9 10  1  0
 10 11  2  0
 11 12  1  0
 11 14  1  0
 12 13  2  0
 12 26  1  0
 14 15  2  0
 14 16  1  0
 16 17  2  0
 16 21  1  0
 17 18  1  0
 17 24  1  0
 18 19  2  0
 18 25  1  0
 19 20  1  0
 20 21  2  0
 21 22  1  0
 22 23  1  0
 27 28  1  0
 27 29  2  0
 27 30  2  0
M  END
$$$$
