3B65_ligand
     RDKit          3D

 25 26  0  0  1  0  0  0  0  0999 V2000
   26.0544    3.4434    3.9585 C   0  0  0  0  0  0  0  0  0  0  0  0
   25.1535    4.5094    3.9036 C   0  0  0  0  0  0  0  0  0  0  0  0
   23.1103    4.0748    4.0984 I   0  0  0  0  0  0  0  0  0  0  0  0
   25.6336    5.8171    3.7267 C   0  0  0  0  0  0  0  0  0  0  0  0
   24.7522    6.9625    3.5934 C   0  0  0  0  0  0  0  0  0  0  0  0
   24.0605    7.8779    3.4809 N   0  0  0  0  0  0  0  0  0  0  0  0
   27.0050    6.0464    3.6499 C   0  0  0  0  0  0  0  0  0  0  0  0
   27.8960    4.9846    3.7120 C   0  0  0  0  0  0  0  0  0  0  0  0
   27.4349    3.6762    3.8517 C   0  0  0  0  0  0  0  0  0  0  0  0
   28.4301    2.6921    3.8800 N   0  0  0  0  0  0  0  0  0  0  0  0
   28.3480    1.3488    4.0063 C   0  0  0  0  0  0  0  0  0  0  0  0
   27.2929    0.7259    4.1396 O   0  0  0  0  0  0  0  0  0  0  0  0
   29.6990    0.5745    4.0472 C   0  0  2  0  0  0  0  0  0  0  0  0
   30.7306    1.3727    3.4887 O   0  0  0  0  0  0  0  0  0  0  0  0
   29.6491   -0.7179    3.1988 C   0  0  0  0  0  0  0  0  0  0  0  0
   30.1338    0.2830    5.5115 C   0  0  0  0  0  0  0  0  0  0  0  0
   29.9468    1.4226    6.3623 O   0  0  0  0  0  0  0  0  0  0  0  0
   29.8389    1.1908    7.7152 C   0  0  0  0  0  0  0  0  0  0  0  0
   30.6603    0.2868    8.3962 C   0  0  0  0  0  0  0  0  0  0  0  0
   30.4524    0.0365    9.7493 C   0  0  0  0  0  0  0  0  0  0  0  0
   29.4361    0.7075   10.4292 C   0  0  0  0  0  0  0  0  0  0  0  0
   29.1910    0.4089   11.8297 C   0  0  0  0  0  0  0  0  0  0  0  0
   28.9974    0.1703   12.9445 N   0  0  0  0  0  0  0  0  0  0  0  0
   28.6575    1.6606    9.7710 C   0  0  0  0  0  0  0  0  0  0  0  0
   28.8656    1.8991    8.4161 C   0  0  0  0  0  0  0  0  0  0  0  0
  1  2  2  0
  1  9  1  0
  2  3  1  0
  2  4  1  0
  4  5  1  0
  4  7  2  0
  5  6  3  0
  7  8  1  0
  8  9  2  0
  9 10  1  0
 10 11  1  0
 11 12  2  0
 11 13  1  0
 13 14  1  0
 13 15  1  6
 13 16  1  0
 16 17  1  0
 17 18  1  0
 18 19  2  0
 18 25  1  0
 19 20  1  0
 20 21  2  0
 21 22  1  0
 21 24  1  0
 22 23  3  0
 24 25  2  0
M  END
$$$$
