7BLG - prepared_ligand
     RDKit          3D

 24 24  0  0  1  0  0  0  0  0999 V2000
  -31.5383    2.2880   -8.9648 C   0  0  2  0  0  0  0  0  0  0  0  0
  -30.6606    2.0719  -10.2216 C   0  0  1  0  0  0  0  0  0  0  0  0
  -29.8550    0.7585  -10.0782 C   0  0  2  0  0  0  0  0  0  0  0  0
  -29.1026    0.7253   -8.7358 C   0  0  2  0  0  0  0  0  0  0  0  0
  -30.0982    0.9751   -7.5813 C   0  0  1  0  0  0  0  0  0  0  0  0
  -29.4229    0.9669   -6.1924 C   0  0  0  0  0  0  0  0  0  0  0  0
  -32.1085    3.5311   -9.0674 O   0  0  0  0  0  0  0  0  0  0  0  0
  -31.4337    2.0784  -11.4126 O   0  0  0  0  0  0  0  0  0  0  0  0
  -28.9988    0.5111  -11.1832 O   0  0  0  0  0  0  0  0  0  0  0  0
  -28.0490    1.6656   -8.7027 O   0  0  0  0  0  0  0  0  0  0  0  0
  -30.7544    2.2329   -7.7977 O   0  0  0  0  0  0  0  0  0  0  0  0
  -30.3915    0.9503   -5.1653 O   0  0  0  0  0  0  0  0  0  0  0  0
  -32.2893    1.5065   -8.8237 H   0  0  0  0  0  0  0  0  0  0  0  0
  -29.9629    2.9086  -10.2958 H   0  0  0  0  0  0  0  0  0  0  0  0
  -30.5700   -0.0649  -10.0884 H   0  0  0  0  0  0  0  0  0  0  0  0
  -28.6305   -0.2481   -8.6135 H   0  0  0  0  0  0  0  0  0  0  0  0
  -30.8433    0.1762   -7.5914 H   0  0  0  0  0  0  0  0  0  0  0  0
  -28.7679    1.8282   -6.0598 H   0  0  0  0  0  0  0  0  0  0  0  0
  -28.7999    0.0812   -6.0784 H   0  0  0  0  0  0  0  0  0  0  0  0
  -32.6907    3.6465   -8.3088 H   0  0  0  0  0  0  0  0  0  0  0  0
  -31.8753    2.9303  -11.4723 H   0  0  0  0  0  0  0  0  0  0  0  0
  -29.4434   -0.1047  -11.7731 H   0  0  0  0  0  0  0  0  0  0  0  0
  -27.2228    1.2009   -8.5258 H   0  0  0  0  0  0  0  0  0  0  0  0
  -30.7326    1.8468   -5.0586 H   0  0  0  0  0  0  0  0  0  0  0  0
  1  2  1  0
  1  7  1  0
  1 11  1  0
  1 13  1  1
  2  3  1  0
  2  8  1  0
  2 14  1  6
  3  4  1  0
  3  9  1  0
  3 15  1  1
  4  5  1  0
  4 10  1  0
  4 16  1  1
  5  6  1  0
  5 11  1  0
  5 17  1  1
  6 12  1  0
  6 18  1  0
  6 19  1  0
  7 20  1  0
  8 21  1  0
  9 22  1  0
 10 23  1  0
 12 24  1  0
M  END
$$$$
