3GV9_ligand
     RDKit          3D

 12 12  0  0  1  0  0  0  0  0999 V2000
   19.7232    3.2526   32.0161 O   0  0  0  0  0  0  0  0  0  0  0  0
   19.7363    4.2810   31.3427 C   0  0  0  0  0  0  0  0  0  0  0  0
   19.7185    5.6143   32.0871 C   0  0  0  0  0  0  0  0  0  0  0  0
   19.7432    4.1987   29.9938 N   0  0  0  0  0  0  0  0  0  0  0  0
   19.7373    5.2003   29.0202 C   0  0  0  0  0  0  0  0  0  0  0  0
   20.1949    6.5240   29.1857 C   0  0  0  0  0  0  0  0  0  0  0  0
   20.1077    7.2967   28.0479 C   0  0  0  0  0  0  0  0  0  0  0  0
   19.5301    6.3917   26.7072 S   0  0  0  0  0  0  0  0  0  0  0  0
   19.3164    4.9512   27.6868 C   0  0  0  0  0  0  0  0  0  0  0  0
   18.7770    3.7210   27.0428 C   0  0  0  0  0  0  0  0  0  0  0  0
   18.8654    2.6538   27.6829 O   0  0  0  0  0  0  0  0  0  0  0  0
   18.2365    3.7907   25.9120 O   0  0  0  0  0  0  0  0  0  0  0  0
  1  2  2  0
  2  3  1  0
  2  4  1  0
  4  5  1  0
  5  6  1  0
  5  9  2  0
  6  7  2  0
  7  8  1  0
  8  9  1  0
  9 10  1  0
 10 11  2  0
 10 12  1  0
M  CHG  1  12  -1
M  END
$$$$
