1MMV - prepared_ligand4
     RDKit          3D

 36 35  0  0  1  0  0  0  0  0999 V2000
   16.1865    0.1149   56.6014 N   0  0  0  0  0  0  0  0  0  0  0  0
   16.7689   -0.2523   57.9758 C   0  0  2  0  0  0  0  0  0  0  0  0
   17.6507   -1.5188   57.8325 C   0  0  0  0  0  0  0  0  0  0  0  0
   17.6131   -2.2130   56.7918 O   0  0  0  0  0  0  0  0  0  0  0  0
   15.6285   -0.4655   59.0079 C   0  0  0  0  0  0  0  0  0  0  0  0
   14.8442    0.8077   59.3993 C   0  0  0  0  0  0  0  0  0  0  0  0
   13.7536    1.2732   58.4128 C   0  0  0  0  0  0  0  0  0  0  0  0
   12.6774    0.2861   58.1998 N   0  0  0  0  0  0  0  0  0  0  0  0
   11.6613   -0.0171   59.0067 C   0  0  0  0  0  0  0  0  0  0  0  0
   11.3256    0.7915   60.0110 N   0  0  0  0  0  0  0  0  0  0  0  0
   11.0160   -1.1528   58.7728 N   0  0  0  0  0  0  0  0  0  0  0  0
   10.4778    0.5235   61.1740 C   0  0  0  0  0  0  0  0  0  0  0  0
   10.4536    1.7172   62.1404 C   0  0  0  0  0  0  0  0  0  0  0  0
   11.8375    2.0858   62.7019 C   0  0  0  0  0  0  0  0  0  0  0  0
   18.3674   -1.8076   58.8151 O   0  0  0  0  0  0  0  0  0  0  0  0
   15.6869    0.9905   56.6606 H   0  0  0  0  0  0  0  0  0  0  0  0
   16.9245    0.2142   55.9188 H   0  0  0  0  0  0  0  0  0  0  0  0
   15.5398   -0.5993   56.2921 H   0  0  0  0  0  0  0  0  0  0  0  0
   17.3806    0.6198   58.2071 H   0  0  0  0  0  0  0  0  0  0  0  0
   16.0625   -0.8570   59.9301 H   0  0  0  0  0  0  0  0  0  0  0  0
   14.9503   -1.2537   58.6758 H   0  0  0  0  0  0  0  0  0  0  0  0
   15.5546    1.6213   59.5483 H   0  0  0  0  0  0  0  0  0  0  0  0
   14.3852    0.6521   60.3767 H   0  0  0  0  0  0  0  0  0  0  0  0
   14.1772    1.5128   57.4422 H   0  0  0  0  0  0  0  0  0  0  0  0
   13.2876    2.1865   58.7684 H   0  0  0  0  0  0  0  0  0  0  0  0
   12.7488   -0.2728   57.3574 H   0  0  0  0  0  0  0  0  0  0  0  0
   11.6549    1.7434   59.9244 H   0  0  0  0  0  0  0  0  0  0  0  0
   10.0616   -1.2614   59.0876 H   0  0  0  0  0  0  0  0  0  0  0  0
   11.4251   -1.8484   58.1606 H   0  0  0  0  0  0  0  0  0  0  0  0
   10.8681   -0.3715   61.6593 H   0  0  0  0  0  0  0  0  0  0  0  0
    9.4828    0.2958   60.8010 H   0  0  0  0  0  0  0  0  0  0  0  0
    9.7722    1.5021   62.9598 H   0  0  0  0  0  0  0  0  0  0  0  0
   10.0230    2.5827   61.6379 H   0  0  0  0  0  0  0  0  0  0  0  0
   11.7688    2.8631   63.4556 H   0  0  0  0  0  0  0  0  0  0  0  0
   12.3200    1.2232   63.1518 H   0  0  0  0  0  0  0  0  0  0  0  0
   12.4994    2.4592   61.9230 H   0  0  0  0  0  0  0  0  0  0  0  0
  1  2  1  0
  1 16  1  0
  1 17  1  0
  1 18  1  0
  2  3  1  0
  2  5  1  0
  2 19  1  1
  3  4  2  0
  3 15  1  0
  5  6  1  0
  5 20  1  0
  5 21  1  0
  6  7  1  0
  6 22  1  0
  6 23  1  0
  7  8  1  0
  7 24  1  0
  7 25  1  0
  8  9  1  0
  8 26  1  0
  9 10  1  0
  9 11  2  0
 10 12  1  0
 10 27  1  0
 11 28  1  0
 11 29  1  0
 12 13  1  0
 12 30  1  0
 12 31  1  0
 13 14  1  0
 13 32  1  0
 13 33  1  0
 14 34  1  0
 14 35  1  0
 14 36  1  0
M  CHG  3   1   1  11   1  15  -1
M  END
$$$$
