7CUO - prepared_ligand2
     RDKit          3D

 15 15  0  0  1  0  0  0  0  0999 V2000
   21.8112   12.9787   60.7179 C   0  0  0  0  0  0  0  0  0  0  0  0
   22.2244   13.4729   59.6433 O   0  0  0  0  0  0  0  0  0  0  0  0
   21.4794   11.7773   60.8235 O   0  0  0  0  0  0  0  0  0  0  0  0
   21.7062   13.8707   61.9227 C   0  0  0  0  0  0  0  0  0  0  0  0
   22.5348   14.9989   62.0473 C   0  0  0  0  0  0  0  0  0  0  0  0
   22.3585   15.8958   63.0913 C   0  0  0  0  0  0  0  0  0  0  0  0
   21.3597   15.6661   64.0295 C   0  0  0  0  0  0  0  0  0  0  0  0
   20.5877   14.5125   63.9794 C   0  0  0  0  0  0  0  0  0  0  0  0
   20.7561   13.6180   62.9277 C   0  0  0  0  0  0  0  0  0  0  0  0
   21.1114   16.6028   64.9878 O   0  0  0  0  0  0  0  0  0  0  0  0
   23.3037   15.2119   61.3200 H   0  0  0  0  0  0  0  0  0  0  0  0
   22.9763   16.7793   63.1402 H   0  0  0  0  0  0  0  0  0  0  0  0
   19.8368   14.3320   64.7333 H   0  0  0  0  0  0  0  0  0  0  0  0
   20.1119   12.7511   62.8812 H   0  0  0  0  0  0  0  0  0  0  0  0
   21.6893   17.3698   64.8901 H   0  0  0  0  0  0  0  0  0  0  0  0
  1  2  2  0
  1  3  1  0
  1  4  1  0
  4  5  2  0
  4  9  1  0
  5  6  1  0
  5 11  1  0
  6  7  2  0
  6 12  1  0
  7  8  1  0
  7 10  1  0
  8  9  2  0
  8 13  1  0
  9 14  1  0
 10 15  1  0
M  CHG  1   3  -1
M  END
$$$$
