4KZQ_ligand
     RDKit          3D

 18 20  0  0  1  0  0  0  0  0999 V2000
   12.2985    4.2909  -14.0344 C   0  0  0  0  0  0  0  0  0  0  0  0
   11.6168    4.9034  -12.9851 C   0  0  0  0  0  0  0  0  0  0  0  0
   10.6068    5.8287  -13.2514 C   0  0  0  0  0  0  0  0  0  0  0  0
   10.2544    6.1380  -14.5726 C   0  0  0  0  0  0  0  0  0  0  0  0
   10.9242    5.4829  -15.6160 C   0  0  0  0  0  0  0  0  0  0  0  0
   11.9507    4.5774  -15.3521 C   0  0  0  0  0  0  0  0  0  0  0  0
    9.1678    7.1040  -14.8769 C   0  0  0  0  0  0  0  0  0  0  0  0
    8.9124    7.3504  -16.3650 C   0  0  0  0  0  0  0  0  0  0  0  0
    9.3048    6.1338  -17.2365 C   0  0  2  0  0  0  0  0  0  0  0  0
   10.6490    5.7234  -16.9441 O   0  0  0  0  0  0  0  0  0  0  0  0
    9.1198    6.3363  -18.7459 C   0  0  0  0  0  0  0  0  0  0  0  0
    9.9316    5.6273  -19.6397 C   0  0  0  0  0  0  0  0  0  0  0  0
    9.7282    5.7239  -21.0127 C   0  0  0  0  0  0  0  0  0  0  0  0
    8.7211    6.5499  -21.5024 C   0  0  0  0  0  0  0  0  0  0  0  0
    7.9237    7.2812  -20.6272 C   0  0  0  0  0  0  0  0  0  0  0  0
    8.1134    7.1681  -19.2528 C   0  0  0  0  0  0  0  0  0  0  0  0
    8.5408    7.6743  -13.9883 O   0  0  0  0  0  0  0  0  0  0  0  0
    8.4998    6.6350  -22.8505 O   0  0  0  0  0  0  0  0  0  0  0  0
  1  2  2  0
  1  6  1  0
  2  3  1  0
  3  4  2  0
  4  5  1  0
  4  7  1  0
  5  6  2  0
  5 10  1  0
  7  8  1  0
  7 17  2  0
  8  9  1  0
  9 10  1  0
  9 11  1  6
 11 12  2  0
 11 16  1  0
 12 13  1  0
 13 14  2  0
 14 15  1  0
 14 18  1  0
 15 16  2  0
M  END
$$$$
