4E6Q_ligand
     RDKit          3D

 25 29  0  0  1  0  0  0  0  0999 V2000
    2.7399   48.3839   25.8509 C   0  0  0  0  0  0  0  0  0  0  0  0
    2.4740   49.7436   26.5093 C   0  0  0  0  0  0  0  0  0  0  0  0
    3.3401   49.9023   27.7833 N   0  0  0  0  0  0  0  0  0  0  0  0
    4.8481   49.6776   27.5200 C   0  0  0  0  0  0  0  0  0  0  0  0
    5.0640   48.3035   26.8632 C   0  0  0  0  0  0  0  0  0  0  0  0
    4.2378   48.2273   25.5661 C   0  0  0  0  0  0  0  0  0  0  0  0
    4.4497   46.9734   24.8445 N   0  0  0  0  0  0  0  0  0  0  0  0
    4.6617   45.7033   25.3469 C   0  0  0  0  0  0  0  0  0  0  0  0
    4.8633   44.7837   24.4331 N   0  0  0  0  0  0  0  0  0  0  0  0
    4.7691   45.4494   23.2457 C   0  0  0  0  0  0  0  0  0  0  0  0
    4.9099   45.0159   21.9166 C   0  0  0  0  0  0  0  0  0  0  0  0
    4.8057   45.8478   20.8384 N   0  0  0  0  0  0  0  0  0  0  0  0
    4.5247   47.1308   21.1035 C   0  0  0  0  0  0  0  0  0  0  0  0
    4.3932   48.1701   20.2104 N   0  0  0  0  0  0  0  0  0  0  0  0
    4.0820   49.3296   20.8863 C   0  0  0  0  0  0  0  0  0  0  0  0
    4.0161   49.0797   22.2454 C   0  0  0  0  0  0  0  0  0  0  0  0
    4.3248   47.6878   22.3855 C   0  0  0  0  0  0  0  0  0  0  0  0
    4.4782   46.8025   23.4752 C   0  0  0  0  0  0  0  0  0  0  0  0
    3.1558   51.3147   28.3879 C   0  0  0  0  0  0  0  0  0  0  0  0
    1.7263   51.6539   28.7684 C   0  0  0  0  0  0  0  0  0  0  0  0
    0.9100   52.3472   27.8703 C   0  0  0  0  0  0  0  0  0  0  0  0
   -0.3990   52.6597   28.2215 C   0  0  0  0  0  0  0  0  0  0  0  0
   -0.8771   52.2981   29.4780 C   0  0  0  0  0  0  0  0  0  0  0  0
   -0.0628   51.6181   30.3808 C   0  0  0  0  0  0  0  0  0  0  0  0
    1.2401   51.2891   30.0243 C   0  0  0  0  0  0  0  0  0  0  0  0
  1  2  1  0
  1  6  1  0
  2  3  1  0
  3  4  1  0
  3 19  1  0
  4  5  1  0
  5  6  1  0
  6  7  1  0
  7  8  1  0
  7 18  1  0
  8  9  2  0
  9 10  1  0
 10 11  1  0
 10 18  2  0
 11 12  2  0
 12 13  1  0
 13 14  1  0
 13 17  2  0
 14 15  1  0
 15 16  2  0
 16 17  1  0
 17 18  1  0
 19 20  1  0
 20 21  2  0
 20 25  1  0
 21 22  1  0
 22 23  2  0
 23 24  1  0
 24 25  2  0
M  CHG  1   3   1
M  END
$$$$
