7OZC - prepared_ligand
     RDKit          3D

 27 27  0  0  1  0  0  0  0  0999 V2000
   18.1897   -1.1309   20.0656 C   0  0  2  0  0  0  0  0  0  0  0  0
   18.3444   -2.6729   20.1039 C   0  0  1  0  0  0  0  0  0  0  0  0
   17.1402   -3.3531   19.4113 C   0  0  2  0  0  0  0  0  0  0  0  0
   15.7974   -2.7717   19.8807 C   0  0  2  0  0  0  0  0  0  0  0  0
   15.8346   -1.2338   19.7731 C   0  0  1  0  0  0  0  0  0  0  0  0
   14.5318   -0.5469   20.2036 C   0  0  0  0  0  0  0  0  0  0  0  0
   19.1637   -0.5960   20.8649 O   0  0  0  0  0  0  0  0  0  0  0  0
   19.5573   -3.0811   19.4916 O   0  0  0  0  0  0  0  0  0  0  0  0
   15.4666   -3.1724   21.1972 O   0  0  0  0  0  0  0  0  0  0  0  0
   16.9301   -0.7450   20.5550 O   0  0  0  0  0  0  0  0  0  0  0  0
   13.4515   -1.0744   19.4509 O   0  0  0  0  0  0  0  0  0  0  0  0
   12.0180   -0.2351   19.4993 S   0  0  0  0  0  0  0  0  0  0  0  0
   12.3439    1.0766   18.9330 O   0  0  0  0  0  0  0  0  0  0  0  0
   11.1075   -1.0325   18.6718 O   0  0  0  0  0  0  0  0  0  0  0  0
   11.6725   -0.2255   20.9219 O   0  0  0  0  0  0  0  0  0  0  0  0
   17.1438   -4.7615   19.5360 O   0  0  0  0  0  0  0  0  0  0  0  0
   18.2277   -0.7221   19.0526 H   0  0  0  0  0  0  0  0  0  0  0  0
   18.3810   -2.9920   21.1472 H   0  0  0  0  0  0  0  0  0  0  0  0
   17.2169   -3.1724   18.3424 H   0  0  0  0  0  0  0  0  0  0  0  0
   15.0085   -3.1704   19.2430 H   0  0  0  0  0  0  0  0  0  0  0  0
   15.9919   -0.9392   18.7371 H   0  0  0  0  0  0  0  0  0  0  0  0
   14.6215    0.5238   20.0327 H   0  0  0  0  0  0  0  0  0  0  0  0
   14.3417   -0.6878   21.2663 H   0  0  0  0  0  0  0  0  0  0  0  0
   19.2505   -1.1567   21.6400 H   0  0  0  0  0  0  0  0  0  0  0  0
   20.2253   -3.2270   20.1728 H   0  0  0  0  0  0  0  0  0  0  0  0
   15.5644   -4.1304   21.2667 H   0  0  0  0  0  0  0  0  0  0  0  0
   16.8795   -5.1432   18.6919 H   0  0  0  0  0  0  0  0  0  0  0  0
  1  2  1  0
  1  7  1  0
  1 10  1  0
  1 17  1  6
  2  3  1  0
  2  8  1  0
  2 18  1  1
  3  4  1  0
  3 16  1  0
  3 19  1  6
  4  5  1  0
  4  9  1  0
  4 20  1  6
  5  6  1  0
  5 10  1  0
  5 21  1  6
  6 11  1  0
  6 22  1  0
  6 23  1  0
  7 24  1  0
  8 25  1  0
  9 26  1  0
 11 12  1  0
 12 13  2  0
 12 14  2  0
 12 15  1  0
 16 27  1  0
M  CHG  1  15  -1
M  END
$$$$
