8A1H - prepared_ligand2
     RDKit          3D

 41 42  0  0  1  0  0  0  0  0999 V2000
  -69.9075   38.2559   -6.3727 C   0  0  0  0  0  0  0  0  0  0  0  0
  -69.1081   39.4859   -5.9585 C   0  0  0  0  0  0  0  0  0  0  0  0
  -69.6827   40.6463   -5.5008 C   0  0  0  0  0  0  0  0  0  0  0  0
  -71.1762   40.9226   -5.3601 C   0  0  0  0  0  0  0  0  0  0  0  0
  -68.9627   41.7610   -5.1557 N   0  0  0  0  0  0  0  0  0  0  0  0
  -67.6805   41.7113   -5.2222 C   0  0  0  0  0  0  0  0  0  0  0  0
  -66.9155   42.9269   -4.9267 C   0  0  0  0  0  0  0  0  0  0  0  0
  -67.4103   44.0234   -4.6761 O   0  0  0  0  0  0  0  0  0  0  0  0
  -65.5596   42.7559   -4.9809 N   0  0  0  0  0  0  0  0  0  0  0  0
  -64.8478   41.6265   -5.3041 C   0  0  0  0  0  0  0  0  0  0  0  0
  -63.6284   41.7449   -5.2146 O   0  0  0  0  0  0  0  0  0  0  0  0
  -65.5848   40.4816   -5.6931 N   0  0  0  0  0  0  0  0  0  0  0  0
  -66.8783   40.4813   -5.6476 C   0  0  0  0  0  0  0  0  0  0  0  0
  -67.6944   39.4018   -6.0634 N   0  0  0  0  0  0  0  0  0  0  0  0
  -67.0614   38.3434   -6.8834 C   0  0  0  0  0  0  0  0  0  0  0  0
  -66.7803   38.7819   -8.3462 C   0  0  2  0  0  0  0  0  0  0  0  0
  -67.9208   39.4050   -8.9181 O   0  0  0  0  0  0  0  0  0  0  0  0
  -66.3203   37.6446   -9.2950 C   0  0  2  0  0  0  0  0  0  0  0  0
  -67.3545   36.6856   -9.4345 O   0  0  0  0  0  0  0  0  0  0  0  0
  -65.0209   36.9140   -8.8730 C   0  0  2  0  0  0  0  0  0  0  0  0
  -64.0161   37.8376   -8.4924 O   0  0  0  0  0  0  0  0  0  0  0  0
  -64.4714   35.9894   -9.9849 C   0  0  0  0  0  0  0  0  0  0  0  0
  -63.3310   35.2736   -9.5620 O   0  0  0  0  0  0  0  0  0  0  0  0
  -69.5062   37.3587   -5.9089 H   0  0  0  0  0  0  0  0  0  0  0  0
  -70.9565   38.2968   -6.0953 H   0  0  0  0  0  0  0  0  0  0  0  0
  -69.8512   38.1441   -7.4521 H   0  0  0  0  0  0  0  0  0  0  0  0
  -71.4399   41.8845   -5.8015 H   0  0  0  0  0  0  0  0  0  0  0  0
  -71.8115   40.1854   -5.8450 H   0  0  0  0  0  0  0  0  0  0  0  0
  -71.4446   40.9524   -4.3051 H   0  0  0  0  0  0  0  0  0  0  0  0
  -65.0009   43.5628   -4.7415 H   0  0  0  0  0  0  0  0  0  0  0  0
  -67.6458   37.4267   -6.8913 H   0  0  0  0  0  0  0  0  0  0  0  0
  -66.1239   38.0321   -6.4181 H   0  0  0  0  0  0  0  0  0  0  0  0
  -66.0035   39.5462   -8.3180 H   0  0  0  0  0  0  0  0  0  0  0  0
  -67.6123   39.9725   -9.6333 H   0  0  0  0  0  0  0  0  0  0  0  0
  -66.1606   38.0724  -10.2861 H   0  0  0  0  0  0  0  0  0  0  0  0
  -68.1385   37.1456   -9.7466 H   0  0  0  0  0  0  0  0  0  0  0  0
  -65.2436   36.3160   -7.9919 H   0  0  0  0  0  0  0  0  0  0  0  0
  -63.2392   37.3333   -8.2359 H   0  0  0  0  0  0  0  0  0  0  0  0
  -64.2188   36.5515  -10.8843 H   0  0  0  0  0  0  0  0  0  0  0  0
  -65.2284   35.2599  -10.2624 H   0  0  0  0  0  0  0  0  0  0  0  0
  -63.5878   34.7297   -8.8069 H   0  0  0  0  0  0  0  0  0  0  0  0
  1  2  1  0
  1 24  1  0
  1 25  1  0
  1 26  1  0
  2  3  2  0
  2 14  1  0
  3  4  1  0
  3  5  1  0
  4 27  1  0
  4 28  1  0
  4 29  1  0
  5  6  2  0
  6  7  1  0
  6 13  1  0
  7  8  2  0
  7  9  1  0
  9 10  1  0
  9 30  1  0
 10 11  2  0
 10 12  1  0
 12 13  2  0
 13 14  1  0
 14 15  1  0
 15 16  1  0
 15 31  1  0
 15 32  1  0
 16 17  1  0
 16 18  1  0
 16 33  1  1
 17 34  1  0
 18 19  1  0
 18 20  1  0
 18 35  1  6
 19 36  1  0
 20 21  1  0
 20 22  1  0
 20 37  1  1
 21 38  1  0
 22 23  1  0
 22 39  1  0
 22 40  1  0
 23 41  1  0
M  END
$$$$
