7DKT - prepared_ligand
     RDKit          3D

 23 23  0  0  1  0  0  0  0  0999 V2000
   57.2188   66.9821   61.8996 C   0  0  1  0  0  0  0  0  0  0  0  0
   56.4531   66.7953   60.5764 C   0  0  1  0  0  0  0  0  0  0  0  0
   57.4172   66.3406   59.4611 C   0  0  2  0  0  0  0  0  0  0  0  0
   58.6334   67.2769   59.3744 C   0  0  1  0  0  0  0  0  0  0  0  0
   59.2774   67.5415   60.7531 C   0  0  1  0  0  0  0  0  0  0  0  0
   60.3349   68.6523   60.6611 C   0  0  0  0  0  0  0  0  0  0  0  0
   57.7129   65.8231   62.3436 F   0  0  0  0  0  0  0  0  0  0  0  0
   55.3367   65.9419   60.7349 O   0  0  0  0  0  0  0  0  0  0  0  0
   56.7885   66.3011   58.2001 O   0  0  0  0  0  0  0  0  0  0  0  0
   59.5842   66.7496   58.4727 O   0  0  0  0  0  0  0  0  0  0  0  0
   58.2901   67.9091   61.7243 O   0  0  0  0  0  0  0  0  0  0  0  0
   61.0553   68.7359   61.8587 O   0  0  0  0  0  0  0  0  0  0  0  0
   56.5559   67.3753   62.6672 H   0  0  0  0  0  0  0  0  0  0  0  0
   56.0221   67.7528   60.3013 H   0  0  0  0  0  0  0  0  0  0  0  0
   57.7360   65.3205   59.6861 H   0  0  0  0  0  0  0  0  0  0  0  0
   58.3048   68.2293   58.9565 H   0  0  0  0  0  0  0  0  0  0  0  0
   59.7665   66.6251   61.0852 H   0  0  0  0  0  0  0  0  0  0  0  0
   59.8913   69.6192   60.4414 H   0  0  0  0  0  0  0  0  0  0  0  0
   61.0462   68.4319   59.8687 H   0  0  0  0  0  0  0  0  0  0  0  0
   55.6492   65.0741   61.0241 H   0  0  0  0  0  0  0  0  0  0  0  0
   57.4654   66.1032   57.5410 H   0  0  0  0  0  0  0  0  0  0  0  0
   59.9311   67.4812   57.9487 H   0  0  0  0  0  0  0  0  0  0  0  0
   61.5980   67.9389   61.9294 H   0  0  0  0  0  0  0  0  0  0  0  0
  1  2  1  0
  1  7  1  0
  1 11  1  0
  1 13  1  1
  2  3  1  0
  2  8  1  0
  2 14  1  6
  3  4  1  0
  3  9  1  0
  3 15  1  1
  4  5  1  0
  4 10  1  0
  4 16  1  6
  5  6  1  0
  5 11  1  0
  5 17  1  1
  6 12  1  0
  6 18  1  0
  6 19  1  0
  8 20  1  0
  9 21  1  0
 10 22  1  0
 12 23  1  0
M  END
$$$$
