1R5Y_ligand
     RDKit          3D

 13 14  0  0  1  0  0  0  0  0999 V2000
   18.1734   17.1529   19.1007 C   0  0  0  0  0  0  0  0  0  0  0  0
   19.0754   17.4145   18.0756 N   0  0  0  0  0  0  0  0  0  0  0  0
   16.8842   16.7266   18.7727 C   0  0  0  0  0  0  0  0  0  0  0  0
   15.9479   16.4853   19.7761 C   0  0  0  0  0  0  0  0  0  0  0  0
   16.3038   16.6631   21.1077 C   0  0  0  0  0  0  0  0  0  0  0  0
   15.3324   16.4150   22.0832 N   0  0  0  0  0  0  0  0  0  0  0  0
   15.5995   16.5978   23.3194 C   0  0  0  0  0  0  0  0  0  0  0  0
   14.6108   16.3696   24.2883 N   0  0  0  0  0  0  0  0  0  0  0  0
   16.8350   17.0386   23.7106 N   0  0  0  0  0  0  0  0  0  0  0  0
   17.8946   17.3336   22.9099 C   0  0  0  0  0  0  0  0  0  0  0  0
   18.9454   17.7733   23.3688 O   0  0  0  0  0  0  0  0  0  0  0  0
   17.5934   17.0950   21.4429 C   0  0  0  0  0  0  0  0  0  0  0  0
   18.5414   17.3360   20.4399 C   0  0  0  0  0  0  0  0  0  0  0  0
  1  2  1  0
  1  3  2  0
  1 13  1  0
  3  4  1  0
  4  5  2  0
  5  6  1  0
  5 12  1  0
  6  7  2  0
  7  8  1  0
  7  9  1  0
  9 10  1  0
 10 11  2  0
 10 12  1  0
 12 13  2  0
M  END
$$$$
