6YT6 - prepared_ligand2
     RDKit          3D

 52 55  0  0  1  0  0  0  0  0999 V2000
   -0.5556    7.0618  -21.6666 C   0  0  0  0  0  0  0  0  0  0  0  0
    1.8324    4.9722  -18.8170 C   0  0  0  0  0  0  0  0  0  0  0  0
    2.8733    6.0592  -18.5161 C   0  0  0  0  0  0  0  0  0  0  0  0
    2.5854    7.1333  -17.6567 C   0  0  0  0  0  0  0  0  0  0  0  0
    3.5420    8.1131  -17.4108 C   0  0  0  0  0  0  0  0  0  0  0  0
    4.7808    7.9884  -18.0278 C   0  0  0  0  0  0  0  0  0  0  0  0
    4.1602    6.0042  -19.0880 C   0  0  0  0  0  0  0  0  0  0  0  0
    7.0741    4.2133  -18.7518 C   0  0  0  0  0  0  0  0  0  0  0  0
    0.8866    6.7967  -23.7933 C   0  0  0  0  0  0  0  0  0  0  0  0
    3.1935    6.0928  -24.0976 C   0  0  0  0  0  0  0  0  0  0  0  0
    1.7274    6.2863  -26.0058 C   0  0  0  0  0  0  0  0  0  0  0  0
    0.1962    6.3004  -20.8231 N   0  0  0  0  0  0  0  0  0  0  0  0
   -1.7097    7.6888  -21.3218 N   0  0  0  0  0  0  0  0  0  0  0  0
   -2.1243    7.5538  -20.0388 C   0  0  0  0  0  0  0  0  0  0  0  0
   -1.4262    6.7915  -19.1061 C   0  0  0  0  0  0  0  0  0  0  0  0
   -0.2542    6.1674  -19.5398 C   0  0  0  0  0  0  0  0  0  0  0  0
    0.4535    5.4027  -18.5996 N   0  0  0  0  0  0  0  0  0  0  0  0
   -0.2072    7.2077  -23.0160 N   0  0  0  0  0  0  0  0  0  0  0  0
    5.0934    6.9699  -18.8599 N   0  0  0  0  0  0  0  0  0  0  0  0
    4.5352    4.9092  -19.8884 N   0  0  0  0  0  0  0  0  0  0  0  0
    5.3390    3.5397  -19.0811 S   0  0  0  0  0  0  0  0  0  0  0  0
    5.1392    5.2695  -21.1664 C   0  0  0  0  0  0  0  0  0  0  0  0
    5.4270    2.4551  -20.0608 O   0  0  0  0  0  0  0  0  0  0  0  0
    4.6679    3.3327  -17.7912 O   0  0  0  0  0  0  0  0  0  0  0  0
    0.6866    6.7053  -25.1777 C   0  0  0  0  0  0  0  0  0  0  0  0
    2.1493    6.4943  -23.2574 C   0  0  0  0  0  0  0  0  0  0  0  0
    2.9592    5.9878  -25.4646 C   0  0  0  0  0  0  0  0  0  0  0  0
    1.8028    6.0731  -27.4838 C   0  0  0  0  0  0  0  0  0  0  0  0
    3.2415    5.5913  -27.6872 C   0  0  0  0  0  0  0  0  0  0  0  0
    3.8205    5.5896  -26.4734 N   0  0  0  0  0  0  0  0  0  0  0  0
    3.7510    5.2672  -28.7576 O   0  0  0  0  0  0  0  0  0  0  0  0
    2.0300    4.1113  -18.1791 H   0  0  0  0  0  0  0  0  0  0  0  0
    1.9478    4.6350  -19.8480 H   0  0  0  0  0  0  0  0  0  0  0  0
    1.6215    7.2246  -17.1802 H   0  0  0  0  0  0  0  0  0  0  0  0
    3.3261    8.9473  -16.7600 H   0  0  0  0  0  0  0  0  0  0  0  0
    5.5557    8.7077  -17.8494 H   0  0  0  0  0  0  0  0  0  0  0  0
    7.5987    3.5357  -18.0841 H   0  0  0  0  0  0  0  0  0  0  0  0
    7.6085    4.3001  -19.6966 H   0  0  0  0  0  0  0  0  0  0  0  0
    7.0026    5.1890  -18.2759 H   0  0  0  0  0  0  0  0  0  0  0  0
    4.1656    5.8588  -23.6947 H   0  0  0  0  0  0  0  0  0  0  0  0
   -3.0293    8.0692  -19.7605 H   0  0  0  0  0  0  0  0  0  0  0  0
   -1.7792    6.6987  -18.0896 H   0  0  0  0  0  0  0  0  0  0  0  0
    0.0961    5.3554  -17.6553 H   0  0  0  0  0  0  0  0  0  0  0  0
   -0.9196    7.6754  -23.5559 H   0  0  0  0  0  0  0  0  0  0  0  0
    5.0993    4.4317  -21.8633 H   0  0  0  0  0  0  0  0  0  0  0  0
    4.6123    6.1119  -21.6118 H   0  0  0  0  0  0  0  0  0  0  0  0
    6.1802    5.5612  -21.0388 H   0  0  0  0  0  0  0  0  0  0  0  0
   -0.2772    6.9441  -25.6039 H   0  0  0  0  0  0  0  0  0  0  0  0
    2.3365    6.5745  -22.1978 H   0  0  0  0  0  0  0  0  0  0  0  0
    1.6343    6.9968  -28.0374 H   0  0  0  0  0  0  0  0  0  0  0  0
    1.1067    5.3077  -27.8256 H   0  0  0  0  0  0  0  0  0  0  0  0
    4.7834    5.3193  -26.3187 H   0  0  0  0  0  0  0  0  0  0  0  0
  1 12  2  0
  1 13  1  0
  1 18  1  0
  2  3  1  0
  2 17  1  0
  2 32  1  0
  2 33  1  0
  3  4  2  0
  3  7  1  0
  4  5  1  0
  4 34  1  0
  5  6  2  0
  5 35  1  0
  6 19  1  0
  6 36  1  0
  7 19  2  0
  7 20  1  0
  8 21  1  0
  8 37  1  0
  8 38  1  0
  8 39  1  0
  9 18  1  0
  9 25  2  0
  9 26  1  0
 10 26  2  0
 10 27  1  0
 10 40  1  0
 11 25  1  0
 11 27  2  0
 11 28  1  0
 12 16  1  0
 13 14  2  0
 14 15  1  0
 14 41  1  0
 15 16  2  0
 15 42  1  0
 16 17  1  0
 17 43  1  0
 18 44  1  0
 20 21  1  0
 20 22  1  0
 21 23  2  0
 21 24  2  0
 22 45  1  0
 22 46  1  0
 22 47  1  0
 25 48  1  0
 26 49  1  0
 27 30  1  0
 28 29  1  0
 28 50  1  0
 28 51  1  0
 29 30  1  0
 29 31  2  0
 30 52  1  0
M  END
$$$$
