2W4X_ligand
     RDKit          3D

 18 18  0  0  1  0  0  0  0  0999 V2000
   -9.2895  -12.0631   11.1087 O   0  0  0  0  0  0  0  0  0  0  0  0
   -8.6838  -10.9363   10.5072 C   0  0  1  0  0  0  0  0  0  0  0  0
   -7.9220  -10.0657   11.5276 C   0  0  2  0  0  0  0  0  0  0  0  0
   -8.8349   -9.4802   12.4369 O   0  0  0  0  0  0  0  0  0  0  0  0
   -7.1085   -8.9850   10.7780 C   0  0  1  0  0  0  0  0  0  0  0  0
   -6.2168   -8.0780   11.6422 C   0  0  0  0  0  0  0  0  0  0  0  0
   -5.2748   -8.8117   12.3992 O   0  0  0  0  0  0  0  0  0  0  0  0
   -6.2511   -9.6246    9.8373 O   0  0  0  0  0  0  0  0  0  0  0  0
   -6.9359  -10.2328    8.7872 C   0  0  1  0  0  0  0  0  0  0  0  0
   -6.0240  -10.7390    7.9020 O   0  0  0  0  0  0  0  0  0  0  0  0
   -7.8122  -11.3920    9.3011 C   0  0  2  0  0  0  0  0  0  0  0  0
   -8.5379  -12.1058    8.2369 N   0  0  0  0  0  0  0  0  0  0  0  0
   -9.5981  -11.6166    7.5450 C   0  0  0  0  0  0  0  0  0  0  0  0
   -9.9430  -10.4361    7.6418 O   0  0  0  0  0  0  0  0  0  0  0  0
  -10.1577  -12.4718    6.6470 N   0  0  0  0  0  0  0  0  0  0  0  0
  -10.9480  -11.9397    5.5201 C   0  0  0  0  0  0  0  0  0  0  0  0
  -10.1839  -13.8205    6.9607 N   0  0  0  0  0  0  0  0  0  0  0  0
  -10.7773  -14.5343    6.1819 O   0  0  0  0  0  0  0  0  0  0  0  0
  2  1  1  1
  2  3  1  0
  2 11  1  0
  3  4  1  1
  3  5  1  0
  5  6  1  1
  5  8  1  0
  6  7  1  0
  8  9  1  0
  9 10  1  6
  9 11  1  0
 11 12  1  6
 12 13  1  0
 13 14  2  0
 13 15  1  0
 15 16  1  0
 15 17  1  0
 17 18  2  0
M  END
$$$$
