1VCJ - prepared_ligand
     RDKit          3D

 52 53  0  0  1  0  0  0  0  0999 V2000
   33.7048   -9.4288   64.9302 C   0  0  0  0  0  0  0  0  0  0  0  0
   32.4651   -9.0328   64.4308 C   0  0  0  0  0  0  0  0  0  0  0  0
   31.3357   -9.8509   64.6627 C   0  0  0  0  0  0  0  0  0  0  0  0
   31.5019  -11.0600   65.3529 C   0  0  0  0  0  0  0  0  0  0  0  0
   32.7438  -11.4622   65.8634 C   0  0  0  0  0  0  0  0  0  0  0  0
   33.8379  -10.6141   65.6401 C   0  0  0  0  0  0  0  0  0  0  0  0
   32.8870  -12.7683   66.6053 C   0  0  0  0  0  0  0  0  0  0  0  0
   32.0878  -13.7015   66.3589 O   0  0  0  0  0  0  0  0  0  0  0  0
   33.8135  -12.8859   67.4395 O   0  0  0  0  0  0  0  0  0  0  0  0
   30.0735   -9.4423   64.1919 N   0  0  0  0  0  0  0  0  0  0  0  0
   28.8569  -10.2488   64.2073 C   0  0  0  0  0  0  0  0  0  0  0  0
   28.7088  -11.0286   62.8780 C   0  0  0  0  0  0  0  0  0  0  0  0
   27.6331   -9.3842   64.5877 C   0  0  0  0  0  0  0  0  0  0  0  0
   27.6499  -12.1405   62.8942 C   0  0  0  0  0  0  0  0  0  0  0  0
   27.4457   -8.0727   63.8057 C   0  0  0  0  0  0  0  0  0  0  0  0
   32.4083   -7.8560   63.6393 N   0  0  0  0  0  0  0  0  0  0  0  0
   33.0875   -7.7008   62.3209 C   0  0  1  0  0  0  0  0  0  0  0  0
   32.4004   -6.4684   61.7200 C   0  0  0  0  0  0  0  0  0  0  0  0
   31.8536   -5.7173   62.9024 C   0  0  0  0  0  0  0  0  0  0  0  0
   31.7120   -6.7484   64.0125 C   0  0  0  0  0  0  0  0  0  0  0  0
   31.0465   -6.5806   65.0308 O   0  0  0  0  0  0  0  0  0  0  0  0
   34.6239   -7.4670   62.4463 C   0  0  0  0  0  0  0  0  0  0  0  0
   34.9676   -6.4720   63.3894 O   0  0  0  0  0  0  0  0  0  0  0  0
   32.8834   -8.9790   61.4515 C   0  0  0  0  0  0  0  0  0  0  0  0
   31.4084   -9.3275   61.2370 N   0  0  0  0  0  0  0  0  0  0  0  0
   34.5787   -8.8123   64.7967 H   0  0  0  0  0  0  0  0  0  0  0  0
   30.6626  -11.7131   65.5217 H   0  0  0  0  0  0  0  0  0  0  0  0
   34.8213  -10.8691   65.9860 H   0  0  0  0  0  0  0  0  0  0  0  0
   29.9800   -8.4833   63.8895 H   0  0  0  0  0  0  0  0  0  0  0  0
   28.9092  -10.9868   65.0029 H   0  0  0  0  0  0  0  0  0  0  0  0
   29.6629  -11.5010   62.6364 H   0  0  0  0  0  0  0  0  0  0  0  0
   28.5064  -10.3413   62.0568 H   0  0  0  0  0  0  0  0  0  0  0  0
   27.6962   -9.1380   65.6486 H   0  0  0  0  0  0  0  0  0  0  0  0
   26.7329   -9.9837   64.4837 H   0  0  0  0  0  0  0  0  0  0  0  0
   27.6804  -12.7184   61.9696 H   0  0  0  0  0  0  0  0  0  0  0  0
   27.8159  -12.8326   63.7188 H   0  0  0  0  0  0  0  0  0  0  0  0
   26.6409  -11.7390   62.9899 H   0  0  0  0  0  0  0  0  0  0  0  0
   26.5404   -7.5595   64.1286 H   0  0  0  0  0  0  0  0  0  0  0  0
   28.2798   -7.3855   63.9512 H   0  0  0  0  0  0  0  0  0  0  0  0
   27.3469   -8.2611   62.7410 H   0  0  0  0  0  0  0  0  0  0  0  0
   31.5919   -6.7023   61.0276 H   0  0  0  0  0  0  0  0  0  0  0  0
   33.1089   -5.8605   61.1686 H   0  0  0  0  0  0  0  0  0  0  0  0
   30.9151   -5.2127   62.6721 H   0  0  0  0  0  0  0  0  0  0  0  0
   32.5716   -4.9711   63.2402 H   0  0  0  0  0  0  0  0  0  0  0  0
   35.0569   -7.1766   61.4878 H   0  0  0  0  0  0  0  0  0  0  0  0
   35.1221   -8.3869   62.7406 H   0  0  0  0  0  0  0  0  0  0  0  0
   34.8698   -5.6101   62.9677 H   0  0  0  0  0  0  0  0  0  0  0  0
   33.3089   -9.8752   61.9048 H   0  0  0  0  0  0  0  0  0  0  0  0
   33.2599   -8.8866   60.4384 H   0  0  0  0  0  0  0  0  0  0  0  0
   31.3341  -10.2007   60.7288 H   0  0  0  0  0  0  0  0  0  0  0  0
   30.9446   -9.4374   62.1289 H   0  0  0  0  0  0  0  0  0  0  0  0
   30.9431   -8.6113   60.6990 H   0  0  0  0  0  0  0  0  0  0  0  0
  1  2  2  0
  1  6  1  0
  1 26  1  0
  2  3  1  0
  2 16  1  0
  3  4  2  0
  3 10  1  0
  4  5  1  0
  4 27  1  0
  5  6  2  0
  5  7  1  0
  6 28  1  0
  7  8  1  0
  7  9  2  0
 10 11  1  0
 10 29  1  0
 11 12  1  0
 11 13  1  0
 11 30  1  0
 12 14  1  0
 12 31  1  0
 12 32  1  0
 13 15  1  0
 13 33  1  0
 13 34  1  0
 14 35  1  0
 14 36  1  0
 14 37  1  0
 15 38  1  0
 15 39  1  0
 15 40  1  0
 16 17  1  0
 16 20  1  0
 17 18  1  0
 17 22  1  1
 17 24  1  0
 18 19  1  0
 18 41  1  0
 18 42  1  0
 19 20  1  0
 19 43  1  0
 19 44  1  0
 20 21  2  0
 22 23  1  0
 22 45  1  0
 22 46  1  0
 23 47  1  0
 24 25  1  0
 24 48  1  0
 24 49  1  0
 25 50  1  0
 25 51  1  0
 25 52  1  0
M  CHG  2   8  -1  25   1
M  END
$$$$
