7P4V - prepared_ligand
     RDKit          3D

 38 40  0  0  1  0  0  0  0  0999 V2000
   32.4109   -9.6257    8.1743 P   0  0  0  0  0  0  0  0  0  0  0  0
   32.5834   -8.5493    7.0899 O   0  0  0  0  0  0  0  0  0  0  0  0
   31.0013   -9.6473    8.7912 O   0  0  0  0  0  0  0  0  0  0  0  0
   32.8686  -11.0178    7.7061 O   0  0  0  0  0  0  0  0  0  0  0  0
   35.1731   -9.0414    9.6428 P   0  0  1  0  0  0  0  0  0  0  0  0
   35.7343   -8.2736    8.4672 O   0  0  0  0  0  0  0  0  0  0  0  0
   35.4726   -8.6742   11.0802 O   0  0  0  0  0  0  0  0  0  0  0  0
   33.4870   -9.1895    9.4654 O   0  0  0  0  0  0  0  0  0  0  0  0
   35.5984  -10.6843    9.3982 O   0  0  0  0  0  0  0  0  0  0  0  0
   35.0859  -11.6525   10.2900 C   0  0  0  0  0  0  0  0  0  0  0  0
   36.0650  -12.8342   10.3453 C   0  0  1  0  0  0  0  0  0  0  0  0
   36.3825  -13.2858    9.0312 O   0  0  0  0  0  0  0  0  0  0  0  0
   37.4301  -12.4941   10.9270 C   0  0  1  0  0  0  0  0  0  0  0  0
   37.4450  -12.5408   12.3360 O   0  0  0  0  0  0  0  0  0  0  0  0
   38.3194  -13.5520   10.3062 C   0  0  0  0  0  0  0  0  0  0  0  0
   37.7276  -13.6622    8.9073 C   0  0  2  0  0  0  0  0  0  0  0  0
   38.4186  -12.8044    7.8632 N   0  0  0  0  0  0  0  0  0  0  0  0
   38.3365  -11.4713    7.6681 C   0  0  0  0  0  0  0  0  0  0  0  0
   39.0821  -11.0299    6.6864 N   0  0  0  0  0  0  0  0  0  0  0  0
   39.7369  -12.1206    6.2562 C   0  0  0  0  0  0  0  0  0  0  0  0
   40.7074  -12.2963    5.2422 C   0  0  0  0  0  0  0  0  0  0  0  0
   41.1635  -11.2595    4.4330 N   0  0  0  0  0  0  0  0  0  0  0  0
   41.2262  -13.5397    5.0524 N   0  0  0  0  0  0  0  0  0  0  0  0
   40.7847  -14.5296    5.8403 C   0  0  0  0  0  0  0  0  0  0  0  0
   39.8623  -14.4925    6.8147 N   0  0  0  0  0  0  0  0  0  0  0  0
   39.3644  -13.2409    6.9788 C   0  0  0  0  0  0  0  0  0  0  0  0
   34.0979  -11.9593    9.9549 H   0  0  0  0  0  0  0  0  0  0  0  0
   34.9652  -11.2556   11.2969 H   0  0  0  0  0  0  0  0  0  0  0  0
   35.6173  -13.6646   10.8957 H   0  0  0  0  0  0  0  0  0  0  0  0
   37.7568  -11.5096   10.5872 H   0  0  0  0  0  0  0  0  0  0  0  0
   37.1097  -11.7018   12.6760 H   0  0  0  0  0  0  0  0  0  0  0  0
   38.2107  -14.5142   10.8085 H   0  0  0  0  0  0  0  0  0  0  0  0
   39.3764  -13.2824   10.2776 H   0  0  0  0  0  0  0  0  0  0  0  0
   37.7641  -14.6932    8.5511 H   0  0  0  0  0  0  0  0  0  0  0  0
   37.6887  -10.8622    8.2774 H   0  0  0  0  0  0  0  0  0  0  0  0
   41.8620  -11.4557    3.7316 H   0  0  0  0  0  0  0  0  0  0  0  0
   40.7975  -10.3285    4.5707 H   0  0  0  0  0  0  0  0  0  0  0  0
   41.2206  -15.5002    5.6526 H   0  0  0  0  0  0  0  0  0  0  0  0
  1  2  2  0
  1  3  1  0
  1  4  1  0
  1  8  1  0
  5  6  2  0
  5  7  1  1
  5  8  1  0
  5  9  1  0
  9 10  1  0
 10 11  1  0
 10 27  1  0
 10 28  1  0
 11 12  1  0
 11 13  1  0
 11 29  1  1
 12 16  1  0
 13 14  1  0
 13 15  1  0
 13 30  1  1
 14 31  1  0
 15 16  1  0
 15 32  1  0
 15 33  1  0
 16 17  1  0
 16 34  1  6
 17 18  1  0
 17 26  1  0
 18 19  2  0
 18 35  1  0
 19 20  1  0
 20 21  1  0
 20 26  2  0
 21 22  1  0
 21 23  2  0
 22 36  1  0
 22 37  1  0
 23 24  1  0
 24 25  2  0
 24 38  1  0
 25 26  1  0
M  CHG  3   3  -1   4  -1   7  -1
M  END
$$$$
