7AVI - prepared_ligand2
     RDKit          3D

 47 49  0  0  1  0  0  0  0  0999 V2000
  -40.6125   -8.6887  -90.4714 C   0  0  0  0  0  0  0  0  0  0  0  0
  -39.5369   -9.0107  -89.6400 C   0  0  0  0  0  0  0  0  0  0  0  0
  -39.7881   -9.8350  -88.5371 C   0  0  0  0  0  0  0  0  0  0  0  0
  -41.1001  -10.3020  -88.3405 C   0  0  0  0  0  0  0  0  0  0  0  0
  -41.4370  -11.2463  -87.2114 C   0  0  0  0  0  0  0  0  0  0  0  0
  -40.5249  -12.3415  -85.1569 C   0  0  1  0  0  0  0  0  0  0  0  0
  -39.6621  -11.9314  -83.9427 C   0  0  0  0  0  0  0  0  0  0  0  0
  -38.7241  -13.8278  -86.1485 C   0  0  0  0  0  0  0  0  0  0  0  0
  -39.2552  -15.9537  -87.1459 C   0  0  0  0  0  0  0  0  0  0  0  0
  -36.9843   -8.3408  -89.7383 C   0  0  0  0  0  0  0  0  0  0  0  0
  -35.9375   -8.2369  -90.8661 C   0  0  0  0  0  0  0  0  0  0  0  0
  -40.1909   -7.8907  -91.4884 O   0  0  0  0  0  0  0  0  0  0  0  0
  -38.8110   -7.6919  -91.3188 N   0  0  0  0  0  0  0  0  0  0  0  0
  -38.4230   -8.3541  -90.2424 C   0  0  0  0  0  0  0  0  0  0  0  0
  -41.8762   -9.0889  -90.3305 N   0  0  0  0  0  0  0  0  0  0  0  0
  -42.0898   -9.9008  -89.2586 C   0  0  0  0  0  0  0  0  0  0  0  0
  -40.5678  -11.2916  -86.1784 N   0  0  0  0  0  0  0  0  0  0  0  0
  -42.4437  -11.9547  -87.2693 O   0  0  0  0  0  0  0  0  0  0  0  0
  -40.0641  -13.6555  -85.7850 C   0  0  0  0  0  0  0  0  0  0  0  0
  -38.3203  -14.9749  -86.8255 C   0  0  0  0  0  0  0  0  0  0  0  0
  -40.9887  -14.6707  -86.0560 C   0  0  0  0  0  0  0  0  0  0  0  0
  -40.5847  -15.8163  -86.7456 C   0  0  0  0  0  0  0  0  0  0  0  0
  -36.7877   -7.2296  -88.6926 C   0  0  0  0  0  0  0  0  0  0  0  0
  -41.7407  -17.1184  -87.1305 S   0  0  0  0  0  0  0  0  0  0  0  0
  -41.7794  -17.9908  -85.9542 O   0  0  0  0  0  0  0  0  0  0  0  0
  -41.3658  -17.6447  -88.4481 O   0  0  0  0  0  0  0  0  0  0  0  0
  -43.3082  -16.3562  -87.3014 N   0  0  0  0  0  0  0  0  0  0  0  0
  -38.9755  -10.1311  -87.8956 H   0  0  0  0  0  0  0  0  0  0  0  0
  -41.5396  -12.4724  -84.7795 H   0  0  0  0  0  0  0  0  0  0  0  0
  -39.6427  -12.7043  -83.1792 H   0  0  0  0  0  0  0  0  0  0  0  0
  -38.6242  -11.7448  -84.2090 H   0  0  0  0  0  0  0  0  0  0  0  0
  -40.0401  -11.0319  -83.4628 H   0  0  0  0  0  0  0  0  0  0  0  0
  -37.9979  -13.0552  -85.9454 H   0  0  0  0  0  0  0  0  0  0  0  0
  -38.9394  -16.8243  -87.6966 H   0  0  0  0  0  0  0  0  0  0  0  0
  -36.7944   -9.2944  -89.2420 H   0  0  0  0  0  0  0  0  0  0  0  0
  -34.9241   -8.2936  -90.4669 H   0  0  0  0  0  0  0  0  0  0  0  0
  -36.0492   -9.0485  -91.5860 H   0  0  0  0  0  0  0  0  0  0  0  0
  -36.0204   -7.2949  -91.4097 H   0  0  0  0  0  0  0  0  0  0  0  0
  -43.1118  -10.2357  -89.1427 H   0  0  0  0  0  0  0  0  0  0  0  0
  -39.8252  -10.6061  -86.1363 H   0  0  0  0  0  0  0  0  0  0  0  0
  -37.2888  -15.0954  -87.1223 H   0  0  0  0  0  0  0  0  0  0  0  0
  -42.0219  -14.5485  -85.7633 H   0  0  0  0  0  0  0  0  0  0  0  0
  -37.4648   -7.3568  -87.8475 H   0  0  0  0  0  0  0  0  0  0  0  0
  -35.7687   -7.2271  -88.3040 H   0  0  0  0  0  0  0  0  0  0  0  0
  -36.9771   -6.2441  -89.1199 H   0  0  0  0  0  0  0  0  0  0  0  0
  -43.7227  -15.9949  -86.4370 H   0  0  0  0  0  0  0  0  0  0  0  0
  -43.3800  -15.6989  -88.0838 H   0  0  0  0  0  0  0  0  0  0  0  0
  1  2  1  0
  1 12  1  0
  1 15  2  0
  2  3  2  0
  2 14  1  0
  3  4  1  0
  3 28  1  0
  4  5  1  0
  4 16  2  0
  5 17  1  0
  5 18  2  0
  6  7  1  0
  6 17  1  0
  6 19  1  0
  6 29  1  1
  7 30  1  0
  7 31  1  0
  7 32  1  0
  8 19  2  0
  8 20  1  0
  8 33  1  0
  9 20  2  0
  9 22  1  0
  9 34  1  0
 10 11  1  0
 10 14  1  0
 10 23  1  0
 10 35  1  0
 11 36  1  0
 11 37  1  0
 11 38  1  0
 12 13  1  0
 13 14  2  0
 15 16  1  0
 16 39  1  0
 17 40  1  0
 19 21  1  0
 20 41  1  0
 21 22  2  0
 21 42  1  0
 22 24  1  0
 23 43  1  0
 23 44  1  0
 23 45  1  0
 24 25  2  0
 24 26  2  0
 24 27  1  0
 27 46  1  0
 27 47  1  0
M  END
$$$$
