3O9I_ligand
     RDKit          3D

 42 46  0  0  1  0  0  0  0  0999 V2000
   15.5080   36.5501   18.5802 C   0  0  0  0  0  0  0  0  0  0  0  0
   15.0020   35.3511   18.6143 N   0  0  0  0  0  0  0  0  0  0  0  0
   16.7082   36.8683   17.3556 S   0  0  0  0  0  0  0  0  0  0  0  0
   15.5503   34.5628   17.6548 C   0  0  0  0  0  0  0  0  0  0  0  0
   16.5303   35.1940   16.8483 C   0  0  0  0  0  0  0  0  0  0  0  0
   17.2093   34.4815   15.8564 C   0  0  0  0  0  0  0  0  0  0  0  0
   16.9132   33.1260   15.6966 C   0  0  0  0  0  0  0  0  0  0  0  0
   15.9284   32.5073   16.4634 C   0  0  0  0  0  0  0  0  0  0  0  0
   15.2319   33.2155   17.4405 C   0  0  0  0  0  0  0  0  0  0  0  0
   17.8994   32.1606   14.5649 S   0  0  0  0  0  0  0  0  0  0  0  0
   18.4870   33.1011   13.6106 O   0  0  0  0  0  0  0  0  0  0  0  0
   17.0891   31.0348   14.0902 O   0  0  0  0  0  0  0  0  0  0  0  0
   19.2188   31.5444   15.5668 N   0  0  0  0  0  0  0  0  0  0  0  0
   20.0408   32.5644   16.2707 C   0  0  0  0  0  0  0  0  0  0  0  0
   21.5621   32.3094   16.2330 C   0  0  0  0  0  0  0  0  0  0  0  0
   22.0961   32.2716   14.7753 C   0  0  0  0  0  0  0  0  0  0  0  0
   22.2970   33.3331   17.1374 C   0  0  0  0  0  0  0  0  0  0  0  0
   19.0564   30.2256   16.2275 C   0  0  0  0  0  0  0  0  0  0  0  0
   19.9684   29.1485   15.6001 C   0  0  1  0  0  0  0  0  0  0  0  0
   22.2048   34.8058   16.6925 C   0  0  0  0  0  0  0  0  0  0  0  0
   19.9582   28.0314   16.4542 O   0  0  0  0  0  0  0  0  0  0  0  0
   19.6486   28.6989   14.1496 C   0  0  1  0  0  0  0  0  0  0  0  0
   23.5681   31.8663   14.6422 C   0  0  0  0  0  0  0  0  0  0  0  0
   20.7530   27.8759   13.6356 N   0  0  0  0  0  0  0  0  0  0  0  0
   21.6594   28.2925   12.6756 C   0  0  0  0  0  0  0  0  0  0  0  0
   21.6778   29.3881   12.1113 O   0  0  0  0  0  0  0  0  0  0  0  0
   22.5182   27.2822   12.4379 O   0  0  0  0  0  0  0  0  0  0  0  0
   23.3858   27.2644   11.2989 C   0  0  1  0  0  0  0  0  0  0  0  0
   24.7538   26.7716   11.7503 C   0  0  0  0  0  0  0  0  0  0  0  0
   24.6730   25.3585   11.6153 O   0  0  0  0  0  0  0  0  0  0  0  0
   23.5956   24.9593   10.8184 C   0  0  1  0  0  0  0  0  0  0  0  0
   22.5884   24.3108   11.5346 O   0  0  0  0  0  0  0  0  0  0  0  0
   21.2841   24.7856   11.2359 C   0  0  0  0  0  0  0  0  0  0  0  0
   21.5146   25.8180   10.1413 C   0  0  0  0  0  0  0  0  0  0  0  0
   22.9792   26.2253   10.2505 C   0  0  1  0  0  0  0  0  0  0  0  0
   18.3021   27.9352   14.0103 C   0  0  0  0  0  0  0  0  0  0  0  0
   18.1440   26.2014   12.1777 C   0  0  0  0  0  0  0  0  0  0  0  0
   17.9037   25.8322   10.8582 C   0  0  0  0  0  0  0  0  0  0  0  0
   17.4822   26.7930    9.9437 C   0  0  0  0  0  0  0  0  0  0  0  0
   17.2896   28.1150   10.3405 C   0  0  0  0  0  0  0  0  0  0  0  0
   17.5400   28.4861   11.6586 C   0  0  0  0  0  0  0  0  0  0  0  0
   17.9768   27.5290   12.5774 C   0  0  0  0  0  0  0  0  0  0  0  0
  1  2  2  0
  1  3  1  0
  2  4  1  0
  3  5  1  0
  4  5  2  0
  4  9  1  0
  5  6  1  0
  6  7  2  0
  7  8  1  0
  7 10  1  0
  8  9  2  0
 10 11  2  0
 10 12  2  0
 10 13  1  0
 13 14  1  0
 13 18  1  0
 14 15  1  0
 15 16  1  0
 15 17  1  0
 16 23  1  0
 17 20  1  0
 18 19  1  0
 19 21  1  1
 19 22  1  0
 22 24  1  0
 22 36  1  1
 24 25  1  0
 25 26  2  0
 25 27  1  0
 28 27  1  1
 28 29  1  0
 28 35  1  0
 29 30  1  0
 31 30  1  1
 31 32  1  0
 31 35  1  0
 32 33  1  0
 33 34  1  0
 35 34  1  1
 36 42  1  0
 37 38  2  0
 37 42  1  0
 38 39  1  0
 39 40  2  0
 40 41  1  0
 41 42  2  0
M  END
$$$$
