6YDY - prepared_ligand
     RDKit          3D

 58 60  0  0  1  0  0  0  0  0999 V2000
   19.2268    2.3599    0.0405 N   0  0  0  0  0  0  0  0  0  0  0  0
   19.7734    1.0825    0.6697 C   0  0  0  0  0  0  0  0  0  0  0  0
   26.2421    3.0403    3.7456 O   0  0  0  0  0  0  0  0  0  0  0  0
   20.8221    1.3476    1.7288 C   0  0  0  0  0  0  0  0  0  0  0  0
   29.4709    1.8444    2.3190 C   0  0  0  0  0  0  0  0  0  0  0  0
   27.4029    1.6730    0.8927 C   0  0  0  0  0  0  0  0  0  0  0  0
   28.1598    2.3488   -0.2892 C   0  0  1  0  0  0  0  0  0  0  0  0
   28.4483    1.4009   -1.4844 C   0  0  0  0  0  0  0  0  0  0  0  0
   29.2996    0.1813   -1.1613 C   0  0  0  0  0  0  0  0  0  0  0  0
   30.6754    0.3197   -0.8811 C   0  0  0  0  0  0  0  0  0  0  0  0
   31.4188   -0.7877   -0.4938 C   0  0  0  0  0  0  0  0  0  0  0  0
   30.8112   -2.0308   -0.3726 C   0  0  0  0  0  0  0  0  0  0  0  0
   29.4569   -2.1826   -0.6330 C   0  0  0  0  0  0  0  0  0  0  0  0
   28.6998   -1.0851   -1.0161 C   0  0  0  0  0  0  0  0  0  0  0  0
   22.1122    1.7036    1.3409 C   0  0  0  0  0  0  0  0  0  0  0  0
   21.5186    1.3156    4.0355 C   0  0  0  0  0  0  0  0  0  0  0  0
   20.5206    1.1751    3.0797 C   0  0  0  0  0  0  0  0  0  0  0  0
   23.1108    1.8365    2.2952 C   0  0  0  0  0  0  0  0  0  0  0  0
   22.8226    1.6217    3.6462 C   0  0  0  0  0  0  0  0  0  0  0  0
   23.9183    1.6300    4.7039 C   0  0  0  0  0  0  0  0  0  0  0  0
   26.2246    1.8094    3.7996 C   0  0  0  0  0  0  0  0  0  0  0  0
   27.4309    0.9977    3.3001 C   0  0  2  0  0  0  0  0  0  0  0  0
   28.5654    0.9912    4.3411 C   0  0  0  0  0  0  0  0  0  0  0  0
   29.8439    1.0001    3.5261 C   0  0  0  0  0  0  0  0  0  0  0  0
   25.1967    1.0838    4.2579 N   0  0  0  0  0  0  0  0  0  0  0  0
   28.0589    1.5424    2.0759 N   0  0  0  0  0  0  0  0  0  0  0  0
   27.2905    3.5027   -0.7110 N   0  0  0  0  0  0  0  0  0  0  0  0
   26.2456    1.2783    0.7185 O   0  0  0  0  0  0  0  0  0  0  0  0
   18.5661    2.1229   -0.6905 H   0  0  0  0  0  0  0  0  0  0  0  0
   18.7365    2.9083    0.7349 H   0  0  0  0  0  0  0  0  0  0  0  0
   19.9669    2.9131   -0.3700 H   0  0  0  0  0  0  0  0  0  0  0  0
   20.1861    0.5236   -0.1693 H   0  0  0  0  0  0  0  0  0  0  0  0
   18.8931    0.5634    1.0528 H   0  0  0  0  0  0  0  0  0  0  0  0
   30.1272    1.6015    1.4851 H   0  0  0  0  0  0  0  0  0  0  0  0
   29.5704    2.9075    2.5426 H   0  0  0  0  0  0  0  0  0  0  0  0
   29.0803    2.8452    0.0147 H   0  0  0  0  0  0  0  0  0  0  0  0
   28.9806    1.9528   -2.2618 H   0  0  0  0  0  0  0  0  0  0  0  0
   27.5186    1.0623   -1.9484 H   0  0  0  0  0  0  0  0  0  0  0  0
   31.1532    1.2855   -0.9582 H   0  0  0  0  0  0  0  0  0  0  0  0
   32.4733   -0.6837   -0.2830 H   0  0  0  0  0  0  0  0  0  0  0  0
   31.3975   -2.8830   -0.0704 H   0  0  0  0  0  0  0  0  0  0  0  0
   28.9917   -3.1528   -0.5353 H   0  0  0  0  0  0  0  0  0  0  0  0
   27.6498   -1.2000   -1.2149 H   0  0  0  0  0  0  0  0  0  0  0  0
   22.3491    1.8438    0.2977 H   0  0  0  0  0  0  0  0  0  0  0  0
   21.2789    1.1642    5.0775 H   0  0  0  0  0  0  0  0  0  0  0  0
   19.5257    0.9099    3.3969 H   0  0  0  0  0  0  0  0  0  0  0  0
   24.1104    2.0806    1.9724 H   0  0  0  0  0  0  0  0  0  0  0  0
   23.5997    0.9875    5.5232 H   0  0  0  0  0  0  0  0  0  0  0  0
   24.0161    2.6432    5.0994 H   0  0  0  0  0  0  0  0  0  0  0  0
   27.1294   -0.0288    3.0829 H   0  0  0  0  0  0  0  0  0  0  0  0
   28.5130    0.1293    5.0065 H   0  0  0  0  0  0  0  0  0  0  0  0
   28.5321    1.8875    4.9638 H   0  0  0  0  0  0  0  0  0  0  0  0
   30.7091    1.3767    4.0724 H   0  0  0  0  0  0  0  0  0  0  0  0
   30.0706   -0.0122    3.1932 H   0  0  0  0  0  0  0  0  0  0  0  0
   25.2696    0.0737    4.2453 H   0  0  0  0  0  0  0  0  0  0  0  0
   27.6990    3.9521   -1.5184 H   0  0  0  0  0  0  0  0  0  0  0  0
   26.3748    3.1453   -0.9492 H   0  0  0  0  0  0  0  0  0  0  0  0
   27.2181    4.1648    0.0483 H   0  0  0  0  0  0  0  0  0  0  0  0
  1  2  1  0
  1 29  1  0
  1 30  1  0
  1 31  1  0
  2  4  1  0
  2 32  1  0
  2 33  1  0
  3 21  2  0
  4 15  2  0
  4 17  1  0
  5 24  1  0
  5 26  1  0
  5 34  1  0
  5 35  1  0
  6  7  1  0
  6 26  1  0
  6 28  2  0
  7  8  1  0
  7 27  1  0
  7 36  1  1
  8  9  1  0
  8 37  1  0
  8 38  1  0
  9 10  2  0
  9 14  1  0
 10 11  1  0
 10 39  1  0
 11 12  2  0
 11 40  1  0
 12 13  1  0
 12 41  1  0
 13 14  2  0
 13 42  1  0
 14 43  1  0
 15 18  1  0
 15 44  1  0
 16 17  2  0
 16 19  1  0
 16 45  1  0
 17 46  1  0
 18 19  2  0
 18 47  1  0
 19 20  1  0
 20 25  1  0
 20 48  1  0
 20 49  1  0
 21 22  1  0
 21 25  1  0
 22 23  1  0
 22 26  1  0
 22 50  1  6
 23 24  1  0
 23 51  1  0
 23 52  1  0
 24 53  1  0
 24 54  1  0
 25 55  1  0
 27 56  1  0
 27 57  1  0
 27 58  1  0
M  CHG  2   1   1  27   1
M  END
$$$$
