7OFF - prepared_ligand
     RDKit          3D

 41 44  0  0  1  0  0  0  0  0999 V2000
   42.9168  -26.4995   10.3440 C   0  0  0  0  0  0  0  0  0  0  0  0
   35.2442  -25.1174    7.4963 C   0  0  0  0  0  0  0  0  0  0  0  0
   36.5170  -24.9323    8.0258 C   0  0  0  0  0  0  0  0  0  0  0  0
   36.8525  -25.5195    9.2415 C   0  0  0  0  0  0  0  0  0  0  0  0
   35.5150  -26.3433   12.4934 C   0  0  0  0  0  0  0  0  0  0  0  0
   40.3450  -28.1730   13.2784 C   0  0  0  0  0  0  0  0  0  0  0  0
   41.6560  -27.9049   13.6696 C   0  0  0  0  0  0  0  0  0  0  0  0
   42.5572  -27.3526   12.7619 C   0  0  0  0  0  0  0  0  0  0  0  0
   40.7484  -27.0438    9.6090 C   0  0  0  0  0  0  0  0  0  0  0  0
   39.7244  -27.1938    8.6669 C   0  0  0  0  0  0  0  0  0  0  0  0
   39.9059  -26.7369    7.3611 C   0  0  0  0  0  0  0  0  0  0  0  0
   42.1418  -27.0893   11.4561 C   0  0  0  0  0  0  0  0  0  0  0  0
   41.1117  -26.1419    6.9904 C   0  0  0  0  0  0  0  0  0  0  0  0
   42.1522  -26.0297    7.9121 C   0  0  0  0  0  0  0  0  0  0  0  0
   41.9648  -26.4894    9.2161 C   0  0  0  0  0  0  0  0  0  0  0  0
   40.8412  -27.3834   11.0437 C   0  0  0  0  0  0  0  0  0  0  0  0
   39.9203  -27.9058   11.9697 C   0  0  0  0  0  0  0  0  0  0  0  0
   38.4891  -28.1693   11.6193 C   0  0  0  0  0  0  0  0  0  0  0  0
   36.2703  -26.9946   11.2596 C   0  0  1  0  0  0  0  0  0  0  0  0
   35.9281  -26.3193    9.9326 C   0  0  0  0  0  0  0  0  0  0  0  0
   34.6557  -26.5027    9.3730 C   0  0  0  0  0  0  0  0  0  0  0  0
   34.3087  -25.8932    8.1704 C   0  0  0  0  0  0  0  0  0  0  0  0
   37.7353  -27.0636   11.4876 N   0  0  0  0  0  0  0  0  0  0  0  0
   44.0844  -26.1128   10.3536 O   0  0  0  0  0  0  0  0  0  0  0  0
   36.2075  -25.7828   13.3771 O   0  0  0  0  0  0  0  0  0  0  0  0
   34.2683  -26.4633   12.4742 O   0  0  0  0  0  0  0  0  0  0  0  0
   38.0825  -29.3209   11.4831 O   0  0  0  0  0  0  0  0  0  0  0  0
   34.9759  -24.6480    6.5614 H   0  0  0  0  0  0  0  0  0  0  0  0
   37.2380  -24.3200    7.5072 H   0  0  0  0  0  0  0  0  0  0  0  0
   37.8392  -25.3362    9.6377 H   0  0  0  0  0  0  0  0  0  0  0  0
   39.6580  -28.5818   14.0057 H   0  0  0  0  0  0  0  0  0  0  0  0
   41.9703  -28.1181   14.6808 H   0  0  0  0  0  0  0  0  0  0  0  0
   43.5673  -27.1384   13.0815 H   0  0  0  0  0  0  0  0  0  0  0  0
   38.7819  -27.6530    8.9225 H   0  0  0  0  0  0  0  0  0  0  0  0
   39.1096  -26.8359    6.6388 H   0  0  0  0  0  0  0  0  0  0  0  0
   41.2416  -25.7673    5.9875 H   0  0  0  0  0  0  0  0  0  0  0  0
   43.0861  -25.5820    7.6067 H   0  0  0  0  0  0  0  0  0  0  0  0
   35.9029  -28.0229   11.2064 H   0  0  0  0  0  0  0  0  0  0  0  0
   33.9225  -27.1106    9.8806 H   0  0  0  0  0  0  0  0  0  0  0  0
   33.3177  -26.0188    7.7610 H   0  0  0  0  0  0  0  0  0  0  0  0
   38.1883  -26.1687   11.5996 H   0  0  0  0  0  0  0  0  0  0  0  0
  1 12  1  0
  1 15  1  0
  1 24  2  0
  2  3  2  0
  2 22  1  0
  2 28  1  0
  3  4  1  0
  3 29  1  0
  4 20  2  0
  4 30  1  0
  5 19  1  0
  5 25  1  0
  5 26  2  0
  6  7  2  0
  6 17  1  0
  6 31  1  0
  7  8  1  0
  7 32  1  0
  8 12  2  0
  8 33  1  0
  9 10  2  0
  9 15  1  0
  9 16  1  0
 10 11  1  0
 10 34  1  0
 11 13  2  0
 11 35  1  0
 12 16  1  0
 13 14  1  0
 13 36  1  0
 14 15  2  0
 14 37  1  0
 16 17  2  0
 17 18  1  0
 18 23  1  0
 18 27  2  0
 19 20  1  0
 19 23  1  0
 19 38  1  6
 20 21  1  0
 21 22  2  0
 21 39  1  0
 22 40  1  0
 23 41  1  0
M  CHG  1  25  -1
M  END
$$$$
