8AEU - prepared_ligand
     RDKit          3D

 71 75  0  0  1  0  0  0  0  0999 V2000
   26.9720    4.5799   15.1654 O   0  0  0  0  0  0  0  0  0  0  0  0
   27.9327    3.4931   13.4393 N   0  0  0  0  0  0  0  0  0  0  0  0
   32.0833    5.3447    9.2436 O   0  0  0  0  0  0  0  0  0  0  0  0
   31.3888    4.3460   15.5530 N   0  0  0  0  0  0  0  0  0  0  0  0
   29.2237    4.4989   15.1823 N   0  0  0  0  0  0  0  0  0  0  0  0
   31.9305    4.3080   20.4141 C   0  0  0  0  0  0  0  0  0  0  0  0
   32.7880    5.4039   20.3605 C   0  0  0  0  0  0  0  0  0  0  0  0
   28.2890    6.0329   18.4339 C   0  0  0  0  0  0  0  0  0  0  0  0
   28.0541    7.2631   19.0422 C   0  0  0  0  0  0  0  0  0  0  0  0
   29.5506    7.1329   16.6981 C   0  0  0  0  0  0  0  0  0  0  0  0
   28.9245    6.3178   12.7660 O   0  0  0  0  0  0  0  0  0  0  0  0
   29.3079    8.3660   17.2946 C   0  0  0  0  0  0  0  0  0  0  0  0
   33.0178    6.0636   19.1548 C   0  0  0  0  0  0  0  0  0  0  0  0
   32.3824    5.6265   17.9957 C   0  0  0  0  0  0  0  0  0  0  0  0
   29.0350    5.9590   17.2577 C   0  0  0  0  0  0  0  0  0  0  0  0
   28.5633    8.4266   18.4696 C   0  0  0  0  0  0  0  0  0  0  0  0
   27.6997    7.9668   13.9447 C   0  0  0  0  0  0  0  0  0  0  0  0
   32.4210    4.4952   11.4171 C   0  0  0  0  0  0  0  0  0  0  0  0
   29.3238    4.5757   16.6430 C   0  0  2  0  0  0  0  0  0  0  0  0
   31.2877    3.8772   19.2582 C   0  0  0  0  0  0  0  0  0  0  0  0
   32.0291    4.3044   12.7375 C   0  0  0  0  0  0  0  0  0  0  0  0
   29.2184    1.5035   14.0868 C   0  0  0  0  0  0  0  0  0  0  0  0
   28.7329    2.3883   13.1800 C   0  0  0  0  0  0  0  0  0  0  0  0
   33.5635    5.9515   21.8013 Cl  0  0  0  0  0  0  0  0  0  0  0  0
   28.0088    4.2125   14.6074 C   0  0  0  0  0  0  0  0  0  0  0  0
   29.1748    8.6449   11.9878 C   0  0  0  0  0  0  0  0  0  0  0  0
   28.2971    9.9504   19.2348 Cl  0  0  0  0  0  0  0  0  0  0  0  0
   31.5102    4.5306   18.0417 C   0  0  0  0  0  0  0  0  0  0  0  0
   30.7413    4.0465   16.8036 C   0  0  2  0  0  0  0  0  0  0  0  0
   30.4978    4.5767   14.6599 C   0  0  0  0  0  0  0  0  0  0  0  0
   31.6442    5.2524   10.5480 C   0  0  0  0  0  0  0  0  0  0  0  0
   30.4804    5.8554   11.0429 C   0  0  0  0  0  0  0  0  0  0  0  0
   30.0955    5.7075   12.3789 C   0  0  0  0  0  0  0  0  0  0  0  0
   30.8525    4.8843   13.2438 C   0  0  0  0  0  0  0  0  0  0  0  0
   28.9938    7.6824   13.1730 C   0  0  0  0  0  0  0  0  0  0  0  0
   31.2339    5.9466    8.2756 C   0  0  0  0  0  0  0  0  0  0  0  0
   26.7669    3.7035   12.5603 C   0  0  0  0  0  0  0  0  0  0  0  0
   27.3077    3.8399   11.1181 C   0  0  0  0  0  0  0  0  0  0  0  0
   28.3274    2.8164   10.8301 N   0  0  0  0  0  0  0  0  0  0  0  0
   29.0511    2.1548   11.7636 C   0  0  0  0  0  0  0  0  0  0  0  0
   29.9254    1.3854   11.3646 O   0  0  0  0  0  0  0  0  0  0  0  0
   31.7560    3.7990   21.3496 H   0  0  0  0  0  0  0  0  0  0  0  0
   27.9184    5.1295   18.8917 H   0  0  0  0  0  0  0  0  0  0  0  0
   27.4918    7.3083   19.9619 H   0  0  0  0  0  0  0  0  0  0  0  0
   30.1694    7.0888   15.8188 H   0  0  0  0  0  0  0  0  0  0  0  0
   29.7138    9.2664   16.8567 H   0  0  0  0  0  0  0  0  0  0  0  0
   33.6811    6.9153   19.1163 H   0  0  0  0  0  0  0  0  0  0  0  0
   32.5546    6.1556   17.0699 H   0  0  0  0  0  0  0  0  0  0  0  0
   27.7274    8.9520   14.4054 H   0  0  0  0  0  0  0  0  0  0  0  0
   26.8233    7.9176   13.2972 H   0  0  0  0  0  0  0  0  0  0  0  0
   27.5566    7.2429   14.7448 H   0  0  0  0  0  0  0  0  0  0  0  0
   33.3235    4.0245   11.0563 H   0  0  0  0  0  0  0  0  0  0  0  0
   28.6314    3.8691   17.1067 H   0  0  0  0  0  0  0  0  0  0  0  0
   30.6078    3.0393   19.3126 H   0  0  0  0  0  0  0  0  0  0  0  0
   32.6524    3.6756   13.3578 H   0  0  0  0  0  0  0  0  0  0  0  0
   29.8315    0.6573   13.8075 H   0  0  0  0  0  0  0  0  0  0  0  0
   29.0067    1.6121   15.1406 H   0  0  0  0  0  0  0  0  0  0  0  0
   29.0660    9.6828   12.2981 H   0  0  0  0  0  0  0  0  0  0  0  0
   30.1729    8.5487   11.5639 H   0  0  0  0  0  0  0  0  0  0  0  0
   28.4497    8.4551   11.1961 H   0  0  0  0  0  0  0  0  0  0  0  0
   30.7229    2.9547   16.8712 H   0  0  0  0  0  0  0  0  0  0  0  0
   29.8524    6.4459   10.3942 H   0  0  0  0  0  0  0  0  0  0  0  0
   29.8378    7.8224   13.8474 H   0  0  0  0  0  0  0  0  0  0  0  0
   31.7209    5.9193    7.3014 H   0  0  0  0  0  0  0  0  0  0  0  0
   30.2861    5.4131    8.1873 H   0  0  0  0  0  0  0  0  0  0  0  0
   31.0309    6.9882    8.5182 H   0  0  0  0  0  0  0  0  0  0  0  0
   26.1814    4.5846   12.8301 H   0  0  0  0  0  0  0  0  0  0  0  0
   26.1249    2.8256   12.6448 H   0  0  0  0  0  0  0  0  0  0  0  0
   27.7583    4.8196   10.9612 H   0  0  0  0  0  0  0  0  0  0  0  0
   26.4888    3.7302   10.4066 H   0  0  0  0  0  0  0  0  0  0  0  0
   28.5566    2.6322    9.8642 H   0  0  0  0  0  0  0  0  0  0  0  0
  1 25  2  0
  2 23  1  0
  2 25  1  0
  2 37  1  0
  3 31  1  0
  3 36  1  0
  4 29  1  0
  4 30  2  0
  5 19  1  0
  5 25  1  0
  5 30  1  0
  6  7  2  0
  6 20  1  0
  6 42  1  0
  7 13  1  0
  7 24  1  0
  8  9  2  0
  8 15  1  0
  8 43  1  0
  9 16  1  0
  9 44  1  0
 10 12  1  0
 10 15  2  0
 10 45  1  0
 11 33  1  0
 11 35  1  0
 12 16  2  0
 12 46  1  0
 13 14  2  0
 13 47  1  0
 14 28  1  0
 14 48  1  0
 15 19  1  0
 16 27  1  0
 17 35  1  0
 17 49  1  0
 17 50  1  0
 17 51  1  0
 18 21  2  0
 18 31  1  0
 18 52  1  0
 19 29  1  0
 19 53  1  1
 20 28  2  0
 20 54  1  0
 21 34  1  0
 21 55  1  0
 22 23  2  0
 22 56  1  0
 22 57  1  0
 23 40  1  0
 26 35  1  0
 26 58  1  0
 26 59  1  0
 26 60  1  0
 28 29  1  0
 29 61  1  1
 30 34  1  0
 31 32  2  0
 32 33  1  0
 32 62  1  0
 33 34  2  0
 35 63  1  0
 36 64  1  0
 36 65  1  0
 36 66  1  0
 37 38  1  0
 37 67  1  0
 37 68  1  0
 38 39  1  0
 38 69  1  0
 38 70  1  0
 39 40  1  0
 39 71  1  0
 40 41  2  0
M  END
$$$$
