7UJ5 - prepared_ligand4
     RDKit          3D

 19 18  0  0  1  0  0  0  0  0999 V2000
  -25.6282   16.1500  -14.1719 N   0  0  0  0  0  0  0  0  0  0  0  0
  -24.5020   16.9758  -13.6966 C   0  0  1  0  0  0  0  0  0  0  0  0
  -24.8832   18.4603  -13.8408 C   0  0  0  0  0  0  0  0  0  0  0  0
  -26.0369   18.8697  -13.7721 O   0  0  0  0  0  0  0  0  0  0  0  0
  -24.1003   16.6534  -12.2400 C   0  0  0  0  0  0  0  0  0  0  0  0
  -23.4363   15.2813  -12.0498 C   0  0  0  0  0  0  0  0  0  0  0  0
  -22.1196   15.2064  -12.8093 C   0  0  0  0  0  0  0  0  0  0  0  0
  -22.0038   14.6668  -13.9050 O   0  0  0  0  0  0  0  0  0  0  0  0
  -21.1083   15.8501  -12.1613 O   0  0  0  0  0  0  0  0  0  0  0  0
  -23.7853   19.2528  -13.9993 O   0  0  0  0  0  0  0  0  0  0  0  0
  -25.4057   15.1629  -14.1585 H   0  0  0  0  0  0  0  0  0  0  0  0
  -26.4352   16.2522  -13.5663 H   0  0  0  0  0  0  0  0  0  0  0  0
  -23.6475   16.8193  -14.3552 H   0  0  0  0  0  0  0  0  0  0  0  0
  -24.9805   16.7141  -11.6011 H   0  0  0  0  0  0  0  0  0  0  0  0
  -23.4105   17.4087  -11.8613 H   0  0  0  0  0  0  0  0  0  0  0  0
  -24.0982   14.4874  -12.3962 H   0  0  0  0  0  0  0  0  0  0  0  0
  -23.2591   15.0888  -10.9925 H   0  0  0  0  0  0  0  0  0  0  0  0
  -21.3790   16.2163  -11.3168 H   0  0  0  0  0  0  0  0  0  0  0  0
  -22.9654   18.7647  -14.1152 H   0  0  0  0  0  0  0  0  0  0  0  0
  1  2  1  0
  1 11  1  0
  1 12  1  0
  2  3  1  0
  2  5  1  0
  2 13  1  6
  3  4  2  0
  3 10  1  0
  5  6  1  0
  5 14  1  0
  5 15  1  0
  6  7  1  0
  6 16  1  0
  6 17  1  0
  7  8  2  0
  7  9  1  0
  9 18  1  0
 10 19  1  0
M  END
$$$$
