1O5B_ligand
     RDKit          3D

 13 14  0  0  1  0  0  0  0  0999 V2000
    8.1950   -0.8705   25.5957 C   0  0  0  0  0  0  0  0  0  0  0  0
    8.5297    0.4454   25.2578 C   0  0  0  0  0  0  0  0  0  0  0  0
    7.3763   -1.1030   26.6116 N   0  0  0  0  0  0  0  0  0  0  0  0
    8.6553   -1.8912   24.8913 N   0  0  0  0  0  0  0  0  0  0  0  0
    9.1592    0.8957   23.6643 S   0  0  0  0  0  0  0  0  0  0  0  0
    9.1841    2.5861   24.1002 C   0  0  0  0  0  0  0  0  0  0  0  0
    8.7414    2.7949   25.4315 C   0  0  0  0  0  0  0  0  0  0  0  0
    8.4234    1.5739   26.0656 C   0  0  0  0  0  0  0  0  0  0  0  0
    9.5551    3.6491   23.2773 C   0  0  0  0  0  0  0  0  0  0  0  0
    9.4829    4.9359   23.7962 C   0  0  0  0  0  0  0  0  0  0  0  0
    9.0351    5.1652   25.0913 C   0  0  0  0  0  0  0  0  0  0  0  0
    8.6598    4.1106   25.9205 C   0  0  0  0  0  0  0  0  0  0  0  0
    7.9158    4.4998   27.8411 I   0  0  0  0  0  0  0  0  0  0  0  0
  1  2  1  0
  1  3  1  0
  1  4  2  0
  2  5  1  0
  2  8  2  0
  5  6  1  0
  6  7  2  0
  6  9  1  0
  7  8  1  0
  7 12  1  0
  9 10  2  0
 10 11  1  0
 11 12  2  0
 12 13  1  0
M  CHG  1   4   1
M  END
$$$$
