7FT9 - prepared_ligand2
     RDKit          3D

 22 22  0  0  1  0  0  0  0  0999 V2000
    1.7715    6.8246  -31.5336 C   0  0  0  0  0  0  0  0  0  0  0  0
    0.6633    4.6537  -31.4675 C   0  0  0  0  0  0  0  0  0  0  0  0
    0.4218    8.8483  -31.9609 N   0  0  0  0  0  0  0  0  0  0  0  0
    0.5497    7.4625  -31.7734 C   0  0  0  0  0  0  0  0  0  0  0  0
    1.8248    5.4422  -31.3926 C   0  0  0  0  0  0  0  0  0  0  0  0
    0.7348    3.1475  -31.3565 C   0  0  0  0  0  0  0  0  0  0  0  0
   -0.5583    5.3147  -31.6807 C   0  0  0  0  0  0  0  0  0  0  0  0
    2.2476   10.1763  -30.2061 C   0  0  0  0  0  0  0  0  0  0  0  0
   -0.6130    6.6963  -31.8387 C   0  0  0  0  0  0  0  0  0  0  0  0
   -0.3213    2.5102  -31.1204 O   0  0  0  0  0  0  0  0  0  0  0  0
    1.8320    2.5794  -31.5607 O   0  0  0  0  0  0  0  0  0  0  0  0
    1.7669   10.0091  -32.0197 S   0  0  0  0  0  0  0  0  0  0  0  0
    2.8688    9.3916  -32.7627 O   0  0  0  0  0  0  0  0  0  0  0  0
    1.1959   11.2823  -32.4679 O   0  0  0  0  0  0  0  0  0  0  0  0
    2.6957    7.3740  -31.4544 H   0  0  0  0  0  0  0  0  0  0  0  0
   -0.5117    9.2197  -32.0515 H   0  0  0  0  0  0  0  0  0  0  0  0
    2.7850    4.9815  -31.2237 H   0  0  0  0  0  0  0  0  0  0  0  0
   -1.4795    4.7558  -31.7587 H   0  0  0  0  0  0  0  0  0  0  0  0
    3.0928   10.8586  -30.1308 H   0  0  0  0  0  0  0  0  0  0  0  0
    1.3972   10.5730  -29.6525 H   0  0  0  0  0  0  0  0  0  0  0  0
    2.5227    9.1970  -29.8169 H   0  0  0  0  0  0  0  0  0  0  0  0
   -1.5686    7.1660  -32.0243 H   0  0  0  0  0  0  0  0  0  0  0  0
  1  4  2  0
  1  5  1  0
  1 15  1  0
  2  5  2  0
  2  6  1  0
  2  7  1  0
  3  4  1  0
  3 12  1  0
  3 16  1  0
  4  9  1  0
  5 17  1  0
  6 10  2  0
  6 11  1  0
  7  9  2  0
  7 18  1  0
  8 12  1  0
  8 19  1  0
  8 20  1  0
  8 21  1  0
  9 22  1  0
 12 13  2  0
 12 14  2  0
M  CHG  1  11  -1
M  END
$$$$
