3UP2_ligand
     RDKit          3D

 28 30  0  0  1  0  0  0  0  0999 V2000
    3.6829   31.6809    9.1650 N   0  0  0  0  0  0  0  0  0  0  0  0
    4.4276   30.8851    7.0332 N   0  0  0  0  0  0  0  0  0  0  0  0
    5.8124   28.9736    6.8267 N   0  0  0  0  0  0  0  0  0  0  0  0
    3.1225   32.8560    7.2057 N   0  0  0  0  0  0  0  0  0  0  0  0
    4.2983   30.6109    9.7369 C   0  0  0  0  0  0  0  0  0  0  0  0
    3.7740   31.7745    7.8143 C   0  0  0  0  0  0  0  0  0  0  0  0
    5.0561   29.8425    7.6226 C   0  0  0  0  0  0  0  0  0  0  0  0
    5.0063   29.6585    9.0033 C   0  0  0  0  0  0  0  0  0  0  0  0
    6.0307   28.9968    5.4368 C   0  0  0  0  0  0  0  0  0  0  0  0
    5.0235   29.3624    4.5345 C   0  0  0  0  0  0  0  0  0  0  0  0
    5.3042   29.4963    3.1775 C   0  0  0  0  0  0  0  0  0  0  0  0
    6.5829   29.2211    2.6997 C   0  0  0  0  0  0  0  0  0  0  0  0
    7.5798   28.8080    3.5825 C   0  0  0  0  0  0  0  0  0  0  0  0
    7.3094   28.6919    4.9502 C   0  0  0  0  0  0  0  0  0  0  0  0
    9.3436   29.2041    6.0719 C   0  0  0  0  0  0  0  0  0  0  0  0
    2.8677   33.1556    5.8543 C   0  0  0  0  0  0  0  0  0  0  0  0
    1.7992   34.0050    5.5794 C   0  0  0  0  0  0  0  0  0  0  0  0
    1.4417   34.2841    4.2655 C   0  0  0  0  0  0  0  0  0  0  0  0
    2.1447   33.7191    3.1861 C   0  0  0  0  0  0  0  0  0  0  0  0
    3.2588   32.9151    3.4755 C   0  0  0  0  0  0  0  0  0  0  0  0
    3.6213   32.6479    4.7887 C   0  0  0  0  0  0  0  0  0  0  0  0
    1.7136   33.9637    1.7598 C   0  0  0  0  0  0  0  0  0  0  0  0
    2.4904   33.6504    0.8272 O   0  0  0  0  0  0  0  0  0  0  0  0
    0.5823   34.4581    1.5548 O   0  0  0  0  0  0  0  0  0  0  0  0
    8.2847   28.2838    5.8305 O   0  0  0  0  0  0  0  0  0  0  0  0
    8.8985   30.4387    6.3146 F   0  0  0  0  0  0  0  0  0  0  0  0
   10.2093   29.2174    5.0637 F   0  0  0  0  0  0  0  0  0  0  0  0
    9.9798   28.7897    7.1640 F   0  0  0  0  0  0  0  0  0  0  0  0
  1  5  2  0
  1  6  1  0
  2  6  2  0
  2  7  1  0
  3  7  1  0
  3  9  1  0
  4  6  1  0
  4 16  1  0
  5  8  1  0
  7  8  2  0
  9 10  2  0
  9 14  1  0
 10 11  1  0
 11 12  2  0
 12 13  1  0
 13 14  2  0
 14 25  1  0
 15 25  1  0
 15 26  1  0
 15 27  1  0
 15 28  1  0
 16 17  2  0
 16 21  1  0
 17 18  1  0
 18 19  2  0
 19 20  1  0
 19 22  1  0
 20 21  2  0
 22 23  2  0
 22 24  1  0
M  CHG  1  24  -1
M  END
$$$$
