1P1Q_ligand
     RDKit          3D

 13 13  0  0  1  0  0  0  0  0999 V2000
   48.2417   25.2940   42.7062 N   0  0  0  0  0  0  0  0  0  0  0  0
   47.0348   26.2408   42.7504 C   0  0  2  0  0  0  0  0  0  0  0  0
   46.6955   26.5187   44.2316 C   0  0  0  0  0  0  0  0  0  0  0  0
   45.8091   27.3747   44.4364 O   0  0  0  0  0  0  0  0  0  0  0  0
   47.2957   25.9180   45.1541 O   0  0  0  0  0  0  0  0  0  0  0  0
   45.8611   25.5849   41.9878 C   0  0  0  0  0  0  0  0  0  0  0  0
   46.1872   25.2349   40.5466 C   0  0  0  0  0  0  0  0  0  0  0  0
   46.1097   26.1523   39.4349 C   0  0  0  0  0  0  0  0  0  0  0  0
   46.5989   24.0829   40.0192 C   0  0  0  0  0  0  0  0  0  0  0  0
   46.9376   22.7536   40.6550 C   0  0  0  0  0  0  0  0  0  0  0  0
   45.7556   27.3265   39.4999 O   0  0  0  0  0  0  0  0  0  0  0  0
   46.4678   25.5243   38.3480 N   0  0  0  0  0  0  0  0  0  0  0  0
   46.7965   24.1629   38.7050 O   0  0  0  0  0  0  0  0  0  0  0  0
  2  1  1  1
  2  3  1  0
  2  6  1  0
  3  4  2  0
  3  5  1  0
  6  7  1  0
  7  8  1  0
  7  9  2  0
  8 11  2  0
  8 12  1  0
  9 10  1  0
  9 13  1  0
 12 13  1  0
M  CHG  3   1   1   5  -1  12  -1
M  END
$$$$
