7Z2O - prepared_ligand
     RDKit          3D

 21 23  0  0  1  0  0  0  0  0999 V2000
  -10.1304   15.4591   13.2644 C   0  0  0  0  0  0  0  0  0  0  0  0
   -8.8322   15.6669   13.7238 C   0  0  0  0  0  0  0  0  0  0  0  0
   -7.7802   15.5007   12.8154 C   0  0  0  0  0  0  0  0  0  0  0  0
   -5.7236   15.2911   11.4106 C   0  0  0  0  0  0  0  0  0  0  0  0
   -6.5347   14.7001    9.4806 C   0  0  0  0  0  0  0  0  0  0  0  0
   -8.0430   15.1366   11.4673 C   0  0  0  0  0  0  0  0  0  0  0  0
   -4.6988   15.1735   10.6036 N   0  0  0  0  0  0  0  0  0  0  0  0
   -5.2278   14.7904    9.3749 N   0  0  0  0  0  0  0  0  0  0  0  0
  -10.3833   15.1136   11.9384 C   0  0  0  0  0  0  0  0  0  0  0  0
   -6.9079   15.0286   10.7720 N   0  0  0  0  0  0  0  0  0  0  0  0
  -10.8605   14.6043    9.1422 C   0  0  0  0  0  0  0  0  0  0  0  0
   -9.5396   14.5923    9.6729 O   0  0  0  0  0  0  0  0  0  0  0  0
   -9.3545   14.9433   10.9961 C   0  0  0  0  0  0  0  0  0  0  0  0
   -6.0439   15.6878   13.0751 S   0  0  0  0  0  0  0  0  0  0  0  0
  -10.9605   15.5720   13.9469 H   0  0  0  0  0  0  0  0  0  0  0  0
   -8.6478   15.9438   14.7514 H   0  0  0  0  0  0  0  0  0  0  0  0
   -7.2290   14.4132    8.7074 H   0  0  0  0  0  0  0  0  0  0  0  0
  -11.4115   14.9628   11.6532 H   0  0  0  0  0  0  0  0  0  0  0  0
  -10.8293   14.2886    8.1010 H   0  0  0  0  0  0  0  0  0  0  0  0
  -11.5270   13.9191    9.6629 H   0  0  0  0  0  0  0  0  0  0  0  0
  -11.2954   15.6033    9.1775 H   0  0  0  0  0  0  0  0  0  0  0  0
  1  2  2  0
  1  9  1  0
  1 15  1  0
  2  3  1  0
  2 16  1  0
  3  6  2  0
  3 14  1  0
  4  7  2  0
  4 10  1  0
  4 14  1  0
  5  8  2  0
  5 10  1  0
  5 17  1  0
  6 10  1  0
  6 13  1  0
  7  8  1  0
  9 13  2  0
  9 18  1  0
 11 12  1  0
 11 19  1  0
 11 20  1  0
 11 21  1  0
 12 13  1  0
M  END
$$$$
