7XBV - prepared_ligand
     RDKit          3D

 45 47  0  0  1  0  0  0  0  0999 V2000
  -41.3410   12.0670   -8.5347 P   0  0  0  0  0  0  0  0  0  0  0  0
  -41.7857   13.4921   -8.9049 O   0  0  0  0  0  0  0  0  0  0  0  0
  -39.8152   11.8941   -8.6041 O   0  0  0  0  0  0  0  0  0  0  0  0
  -42.0885   10.9824   -9.3301 O   0  0  0  0  0  0  0  0  0  0  0  0
  -41.0918   11.9796   -5.3036 P   0  0  1  0  0  0  0  0  0  0  0  0
  -40.5797   13.3966   -5.1565 O   0  0  0  0  0  0  0  0  0  0  0  0
  -42.0699   11.3737   -4.3193 O   0  0  0  0  0  0  0  0  0  0  0  0
  -41.7877   11.8258   -6.8633 O   0  0  0  0  0  0  0  0  0  0  0  0
  -38.4198   10.3377   -4.2125 P   0  0  1  0  0  0  0  0  0  0  0  0
  -38.2340    8.8362   -4.1670 O   0  0  0  0  0  0  0  0  0  0  0  0
  -37.2426   11.2896   -4.2704 O   0  0  0  0  0  0  0  0  0  0  0  0
  -39.6441   10.8078   -5.5486 C   0  0  0  0  0  0  0  0  0  0  0  0
  -39.3946   10.7730   -2.8640 O   0  0  0  0  0  0  0  0  0  0  0  0
  -38.7192   11.2487   -1.7202 C   0  0  0  0  0  0  0  0  0  0  0  0
  -39.7388   11.4861   -0.6061 C   0  0  1  0  0  0  0  0  0  0  0  0
  -40.3268   10.2514   -0.2361 O   0  0  0  0  0  0  0  0  0  0  0  0
  -39.1262   11.9402    0.7067 C   0  0  1  0  0  0  0  0  0  0  0  0
  -38.7974   13.3170    0.6905 O   0  0  0  0  0  0  0  0  0  0  0  0
  -40.1873   11.5287    1.7259 C   0  0  1  0  0  0  0  0  0  0  0  0
  -41.2723   12.4313    1.8718 O   0  0  0  0  0  0  0  0  0  0  0  0
  -40.7103   10.2250    1.1097 C   0  0  2  0  0  0  0  0  0  0  0  0
  -40.1696    8.9704    1.7571 N   0  0  0  0  0  0  0  0  0  0  0  0
  -39.1798    8.1537    1.3439 C   0  0  0  0  0  0  0  0  0  0  0  0
  -38.9964    7.1195    2.1261 N   0  0  0  0  0  0  0  0  0  0  0  0
  -39.8753    7.2952    3.1249 C   0  0  0  0  0  0  0  0  0  0  0  0
  -40.1648    6.5285    4.2757 C   0  0  0  0  0  0  0  0  0  0  0  0
  -39.5439    5.3217    4.5708 N   0  0  0  0  0  0  0  0  0  0  0  0
  -41.1165    6.9824    5.1324 N   0  0  0  0  0  0  0  0  0  0  0  0
  -41.7373    8.1294    4.8296 C   0  0  0  0  0  0  0  0  0  0  0  0
  -41.5715    8.9263    3.7653 N   0  0  0  0  0  0  0  0  0  0  0  0
  -40.6102    8.4501    2.9375 C   0  0  0  0  0  0  0  0  0  0  0  0
  -39.0265   11.2321   -6.3381 H   0  0  0  0  0  0  0  0  0  0  0  0
  -40.0201    9.8890   -6.0023 H   0  0  0  0  0  0  0  0  0  0  0  0
  -38.2086   12.1819   -1.9639 H   0  0  0  0  0  0  0  0  0  0  0  0
  -37.9762   10.5153   -1.4034 H   0  0  0  0  0  0  0  0  0  0  0  0
  -40.5212   12.1734   -0.9362 H   0  0  0  0  0  0  0  0  0  0  0  0
  -38.2195   11.3634    0.9028 H   0  0  0  0  0  0  0  0  0  0  0  0
  -38.4157   13.5529    1.5464 H   0  0  0  0  0  0  0  0  0  0  0  0
  -39.7390   11.3324    2.7013 H   0  0  0  0  0  0  0  0  0  0  0  0
  -40.9612   13.1663    2.4139 H   0  0  0  0  0  0  0  0  0  0  0  0
  -41.7991   10.1529    1.1492 H   0  0  0  0  0  0  0  0  0  0  0  0
  -38.6436    8.3527    0.4263 H   0  0  0  0  0  0  0  0  0  0  0  0
  -39.8750    4.7763    5.3540 H   0  0  0  0  0  0  0  0  0  0  0  0
  -38.8353    4.9524    3.9475 H   0  0  0  0  0  0  0  0  0  0  0  0
  -42.4904    8.4481    5.5344 H   0  0  0  0  0  0  0  0  0  0  0  0
  1  2  2  0
  1  3  1  0
  1  4  1  0
  1  8  1  0
  5  6  2  0
  5  7  1  1
  5  8  1  0
  5 12  1  0
  9 10  2  0
  9 11  1  6
  9 12  1  0
  9 13  1  0
 12 32  1  0
 12 33  1  0
 13 14  1  0
 14 15  1  0
 14 34  1  0
 14 35  1  0
 15 16  1  0
 15 17  1  0
 15 36  1  6
 16 21  1  0
 17 18  1  0
 17 19  1  0
 17 37  1  1
 18 38  1  0
 19 20  1  0
 19 21  1  0
 19 39  1  1
 20 40  1  0
 21 22  1  0
 21 41  1  6
 22 23  1  0
 22 31  1  0
 23 24  2  0
 23 42  1  0
 24 25  1  0
 25 26  1  0
 25 31  2  0
 26 27  1  0
 26 28  2  0
 27 43  1  0
 27 44  1  0
 28 29  1  0
 29 30  2  0
 29 45  1  0
 30 31  1  0
M  CHG  4   3  -1   4  -1   7  -1  11  -1
M  END
$$$$
