7WJB - prepared_ligand
     RDKit          3D

 24 24  0  0  1  0  0  0  0  0999 V2000
   54.3759   22.9810   13.6273 C   0  0  2  0  0  0  0  0  0  0  0  0
   53.4899   22.4228   15.4208 C   0  0  2  0  0  0  0  0  0  0  0  0
   53.4468   20.4362   15.9096 C   0  0  1  0  0  0  0  0  0  0  0  0
   54.3355   19.0639   14.6521 C   0  0  1  0  0  0  0  0  0  0  0  0
   53.6887   17.7193   14.3453 C   0  0  0  0  0  0  0  0  0  0  0  0
   55.2799   21.4114   12.4189 C   0  0  2  0  0  0  0  0  0  0  0  0
   54.7811   21.5324   11.1776 O   0  0  0  0  0  0  0  0  0  0  0  0
   54.8855   24.2843   13.6508 O   0  0  0  0  0  0  0  0  0  0  0  0
   52.2563   23.0217   15.6270 O   0  0  0  0  0  0  0  0  0  0  0  0
   53.6070   20.1947   17.2824 O   0  0  0  0  0  0  0  0  0  0  0  0
   55.1982   19.7055   13.1128 O   0  0  0  0  0  0  0  0  0  0  0  0
   53.0504   17.7809   13.1284 O   0  0  0  0  0  0  0  0  0  0  0  0
   53.5012   23.2309   13.0255 H   0  0  0  0  0  0  0  0  0  0  0  0
   53.9897   22.9259   16.2463 H   0  0  0  0  0  0  0  0  0  0  0  0
   52.3904   20.1862   15.8025 H   0  0  0  0  0  0  0  0  0  0  0  0
   54.9399   18.4862   15.3036 H   0  0  0  0  0  0  0  0  0  0  0  0
   53.0740   17.3381   15.1586 H   0  0  0  0  0  0  0  0  0  0  0  0
   54.4401   16.9511   14.1709 H   0  0  0  0  0  0  0  0  0  0  0  0
   56.3343   21.3448   12.1862 H   0  0  0  0  0  0  0  0  0  0  0  0
   53.8393   21.7196   11.2684 H   0  0  0  0  0  0  0  0  0  0  0  0
   55.7305   24.2523   14.1154 H   0  0  0  0  0  0  0  0  0  0  0  0
   52.4184   23.9570   15.7982 H   0  0  0  0  0  0  0  0  0  0  0  0
   52.8974   19.5949   17.5416 H   0  0  0  0  0  0  0  0  0  0  0  0
   52.4743   17.0199   13.0360 H   0  0  0  0  0  0  0  0  0  0  0  0
  1  2  1  0
  1  6  1  0
  1  8  1  0
  1 13  1  6
  2  3  1  0
  2  9  1  0
  2 14  1  1
  3  4  1  0
  3 10  1  0
  3 15  1  1
  4  5  1  0
  4 11  1  0
  4 16  1  1
  5 12  1  0
  5 17  1  0
  5 18  1  0
  6  7  1  0
  6 11  1  0
  6 19  1  6
  7 20  1  0
  8 21  1  0
  9 22  1  0
 10 23  1  0
 12 24  1  0
M  END
$$$$
