1NC3_ligand
     RDKit          3D

 19 21  0  0  1  0  0  0  0  0999 V2000
   42.5204   49.8881   39.9010 N   0  0  0  0  0  0  0  0  0  0  0  0
   43.8662   49.9100   39.7700 C   0  0  0  0  0  0  0  0  0  0  0  0
   44.7656   50.3822   40.6682 N   0  0  0  0  0  0  0  0  0  0  0  0
   44.2623   50.8039   41.8325 C   0  0  0  0  0  0  0  0  0  0  0  0
   42.8670   50.8092   42.0646 C   0  0  0  0  0  0  0  0  0  0  0  0
   41.9985   50.3629   41.0579 C   0  0  0  0  0  0  0  0  0  0  0  0
   40.6142   50.3851   41.1434 N   0  0  0  0  0  0  0  0  0  0  0  0
   42.7234   51.3262   43.3332 N   0  0  0  0  0  0  0  0  0  0  0  0
   43.9165   51.6008   43.8964 N   0  0  0  0  0  0  0  0  0  0  0  0
   44.8658   51.3117   43.0328 C   0  0  0  0  0  0  0  0  0  0  0  0
   46.3226   51.5914   43.4185 C   0  0  1  0  0  0  0  0  0  0  0  0
   47.4378   51.1432   42.4514 C   0  0  2  0  0  0  0  0  0  0  0  0
   48.1459   50.0097   42.8949 O   0  0  0  0  0  0  0  0  0  0  0  0
   48.3105   52.3836   42.2619 C   0  0  2  0  0  0  0  0  0  0  0  0
   49.4121   52.4993   43.1456 O   0  0  0  0  0  0  0  0  0  0  0  0
   47.3200   53.5273   42.4872 C   0  0  2  0  0  0  0  0  0  0  0  0
   46.5079   53.0030   43.5348 O   0  0  0  0  0  0  0  0  0  0  0  0
   46.4117   53.8965   41.2966 C   0  0  0  0  0  0  0  0  0  0  0  0
   47.1282   54.6232   40.3199 O   0  0  0  0  0  0  0  0  0  0  0  0
  1  2  2  0
  1  6  1  0
  2  3  1  0
  3  4  2  0
  4  5  1  0
  4 10  1  0
  5  6  2  0
  5  8  1  0
  6  7  1  0
  8  9  1  0
  9 10  2  0
 11 10  1  6
 11 12  1  0
 11 17  1  0
 12 13  1  1
 12 14  1  0
 14 15  1  1
 14 16  1  0
 16 17  1  0
 16 18  1  6
 18 19  1  0
M  END
$$$$
