1SQA_ligand
     RDKit          3D

 31 34  0  0  1  0  0  0  0  0999 V2000
   29.5498   11.1537   28.9252 N   0  0  0  0  0  0  0  0  0  0  0  0
   28.0876   10.6955   28.9335 C   0  0  0  0  0  0  0  0  0  0  0  0
   27.1732   11.6728   29.6512 C   0  0  0  0  0  0  0  0  0  0  0  0
   26.6181   12.7440   28.9493 C   0  0  0  0  0  0  0  0  0  0  0  0
   25.7772   13.6417   29.5990 C   0  0  0  0  0  0  0  0  0  0  0  0
   25.4930   13.4756   30.9551 C   0  0  0  0  0  0  0  0  0  0  0  0
   24.6199   14.4008   31.5449 N   0  0  0  0  0  0  0  0  0  0  0  0
   24.6694   14.8824   32.8062 C   0  0  0  0  0  0  0  0  0  0  0  0
   25.5768   14.6315   33.6054 O   0  0  0  0  0  0  0  0  0  0  0  0
   23.5568   15.8322   33.1883 C   0  0  0  0  0  0  0  0  0  0  0  0
   23.7894   16.8148   34.1515 C   0  0  0  0  0  0  0  0  0  0  0  0
   22.8206   17.7593   34.5014 C   0  0  0  0  0  0  0  0  0  0  0  0
   23.1303   18.7806   35.4203 N   0  0  0  0  0  0  0  0  0  0  0  0
   23.9139   18.7830   36.5834 C   0  0  0  0  0  0  0  0  0  0  0  0
   24.0592   19.9914   37.1857 N   0  0  0  0  0  0  0  0  0  0  0  0
   24.6675   20.0068   38.3999 C   0  0  0  0  0  0  0  0  0  0  0  0
   25.1378   18.8461   39.0132 C   0  0  0  0  0  0  0  0  0  0  0  0
   24.9690   17.6534   38.3092 C   0  0  0  0  0  0  0  0  0  0  0  0
   24.3628   17.6048   37.0940 N   0  0  0  0  0  0  0  0  0  0  0  0
   21.5424   17.7097   33.8615 C   0  0  0  0  0  0  0  0  0  0  0  0
   20.5064   18.6397   34.1455 C   0  0  0  0  0  0  0  0  0  0  0  0
   19.2618   18.6199   33.4944 C   0  0  0  0  0  0  0  0  0  0  0  0
   19.0391   17.5820   32.5726 C   0  0  0  0  0  0  0  0  0  0  0  0
   20.0083   16.6244   32.2894 C   0  0  0  0  0  0  0  0  0  0  0  0
   21.2771   16.6820   32.9095 C   0  0  0  0  0  0  0  0  0  0  0  0
   22.2910   15.7490   32.5951 C   0  0  0  0  0  0  0  0  0  0  0  0
   18.2386   19.6536   33.7776 C   0  0  0  0  0  0  0  0  0  0  0  0
   18.5918   20.8880   34.1141 N   0  0  0  0  0  0  0  0  0  0  0  0
   16.9526   19.3571   33.6936 N   0  0  0  0  0  0  0  0  0  0  0  0
   26.0326   12.3884   31.6561 C   0  0  0  0  0  0  0  0  0  0  0  0
   26.8696   11.4887   31.0026 C   0  0  0  0  0  0  0  0  0  0  0  0
  1  2  1  0
  2  3  1  0
  3  4  2  0
  3 31  1  0
  4  5  1  0
  5  6  2  0
  6  7  1  0
  6 30  1  0
  7  8  1  0
  8  9  2  0
  8 10  1  0
 10 11  2  0
 10 26  1  0
 11 12  1  0
 12 13  1  0
 12 20  2  0
 13 14  1  0
 14 15  2  0
 14 19  1  0
 15 16  1  0
 16 17  2  0
 17 18  1  0
 18 19  2  0
 20 21  1  0
 20 25  1  0
 21 22  2  0
 22 23  1  0
 22 27  1  0
 23 24  2  0
 24 25  1  0
 25 26  2  0
 27 28  2  0
 27 29  1  0
 30 31  2  0
M  CHG  2   1   1  28   1
M  END
$$$$
