1N46 - prepared_ligand2
     RDKit          3D

 49 51  0  0  0  0  0  0  0  0999 V2000
    7.8815  -18.4170  -23.8163 O   0  0  0  0  0  0  0  0  0  0  0  0
    7.0306  -17.5314  -23.9089 C   0  0  0  0  0  0  0  0  0  0  0  0
    6.7857  -16.5977  -22.9736 N   0  0  0  0  0  0  0  0  0  0  0  0
    5.8525  -15.6395  -23.0740 C   0  0  0  0  0  0  0  0  0  0  0  0
    5.5728  -14.8066  -22.2156 O   0  0  0  0  0  0  0  0  0  0  0  0
    6.2100  -17.4932  -25.0337 N   0  0  0  0  0  0  0  0  0  0  0  0
    5.2582  -16.4911  -25.2619 N   0  0  0  0  0  0  0  0  0  0  0  0
    5.0982  -15.6153  -24.3331 C   0  0  0  0  0  0  0  0  0  0  0  0
    6.1521  -18.5659  -25.9456 C   0  0  0  0  0  0  0  0  0  0  0  0
    5.0828  -19.4649  -25.9078 C   0  0  0  0  0  0  0  0  0  0  0  0
    5.0210  -20.5353  -26.8041 C   0  0  0  0  0  0  0  0  0  0  0  0
    3.8639  -21.5160  -26.6956 C   0  0  0  0  0  0  0  0  0  0  0  0
    7.1636  -18.7504  -26.8905 C   0  0  0  0  0  0  0  0  0  0  0  0
    7.1059  -19.7979  -27.8094 C   0  0  0  0  0  0  0  0  0  0  0  0
    8.2342  -19.9410  -28.8205 C   0  0  0  0  0  0  0  0  0  0  0  0
    6.0235  -20.6927  -27.7770 C   0  0  0  0  0  0  0  0  0  0  0  0
    5.9582  -21.7263  -28.6890 O   0  0  0  0  0  0  0  0  0  0  0  0
    5.1742  -21.5891  -29.8169 C   0  0  0  0  0  0  0  0  0  0  0  0
    4.9933  -20.3625  -30.4668 C   0  0  0  0  0  0  0  0  0  0  0  0
    4.5376  -22.7247  -30.3265 C   0  0  0  0  0  0  0  0  0  0  0  0
    3.7077  -22.6492  -31.4586 C   0  0  0  0  0  0  0  0  0  0  0  0
    2.9438  -23.8714  -31.9813 C   0  0  0  0  0  0  0  0  0  0  0  0
    3.7044  -25.1966  -31.8352 C   0  0  0  0  0  0  0  0  0  0  0  0
    1.5304  -23.9301  -31.3701 C   0  0  0  0  0  0  0  0  0  0  0  0
    3.5393  -21.4095  -32.0865 C   0  0  0  0  0  0  0  0  0  0  0  0
    4.1676  -20.2816  -31.5839 C   0  0  0  0  0  0  0  0  0  0  0  0
    2.7600  -21.2681  -33.2024 O   0  0  0  0  0  0  0  0  0  0  0  0
    4.3746  -14.8232  -24.4959 H   0  0  0  0  0  0  0  0  0  0  0  0
    4.3051  -19.3461  -25.1693 H   0  0  0  0  0  0  0  0  0  0  0  0
    3.5201  -21.8424  -27.6745 H   0  0  0  0  0  0  0  0  0  0  0  0
    4.1730  -22.4022  -26.1431 H   0  0  0  0  0  0  0  0  0  0  0  0
    3.0020  -21.0671  -26.2007 H   0  0  0  0  0  0  0  0  0  0  0  0
    8.0015  -18.0789  -26.9170 H   0  0  0  0  0  0  0  0  0  0  0  0
    8.2057  -20.8893  -29.3575 H   0  0  0  0  0  0  0  0  0  0  0  0
    8.1994  -19.1243  -29.5428 H   0  0  0  0  0  0  0  0  0  0  0  0
    9.1984  -19.8890  -28.3139 H   0  0  0  0  0  0  0  0  0  0  0  0
    5.4719  -19.4703  -30.0929 H   0  0  0  0  0  0  0  0  0  0  0  0
    4.6772  -23.6597  -29.8061 H   0  0  0  0  0  0  0  0  0  0  0  0
    2.8273  -23.7594  -33.0595 H   0  0  0  0  0  0  0  0  0  0  0  0
    3.1227  -26.0091  -32.2638 H   0  0  0  0  0  0  0  0  0  0  0  0
    4.6628  -25.1707  -32.3542 H   0  0  0  0  0  0  0  0  0  0  0  0
    3.8937  -25.4501  -30.7965 H   0  0  0  0  0  0  0  0  0  0  0  0
    0.9777  -24.7988  -31.7270 H   0  0  0  0  0  0  0  0  0  0  0  0
    1.5618  -23.9849  -30.2832 H   0  0  0  0  0  0  0  0  0  0  0  0
    0.9481  -23.0450  -31.6293 H   0  0  0  0  0  0  0  0  0  0  0  0
    3.9694  -19.3448  -32.0641 H   0  0  0  0  0  0  0  0  0  0  0  0
    2.3057  -22.0829  -33.4306 H   0  0  0  0  0  0  0  0  0  0  0  0
    7.3789  -16.6205  -22.0834 H   0  0  0  0  0  0  0  0  0  0  0  0
    6.5909  -14.9595  -23.4988 H   0  0  0  0  0  0  0  0  0  0  0  0
  1  2  2  0
  2  3  1  0
  2  6  1  0
  3  4  1  0
  4  5  1  0
  4  8  1  0
  6  7  1  0
  6  9  1  0
  7  8  2  0
  8 28  1  0
  9 10  2  0
  9 13  1  0
 10 11  1  0
 10 29  1  0
 11 12  1  0
 11 16  2  0
 12 30  1  0
 12 31  1  0
 12 32  1  0
 13 14  2  0
 13 33  1  0
 14 15  1  0
 14 16  1  0
 15 34  1  0
 15 35  1  0
 15 36  1  0
 16 17  1  0
 17 18  1  0
 18 19  2  0
 18 20  1  0
 19 26  1  0
 19 37  1  0
 20 21  2  0
 20 38  1  0
 21 22  1  0
 21 25  1  0
 22 23  1  0
 22 24  1  0
 22 39  1  0
 23 40  1  0
 23 41  1  0
 23 42  1  0
 24 43  1  0
 24 44  1  0
 24 45  1  0
 25 26  2  0
 25 27  1  0
 26 46  1  0
 27 47  1  0
  3 48  1  0
  4 49  1  0
M  CHG  1   5  -1
M  END
$$$$
