3PYY_ligand
     RDKit          3D

 25 28  0  0  1  0  0  0  0  0999 V2000
   17.2913   18.5116  -19.0259 C   0  0  0  0  0  0  0  0  0  0  0  0
   16.4579   19.2892  -19.8201 C   0  0  0  0  0  0  0  0  0  0  0  0
   17.5411   18.8410  -17.6967 C   0  0  0  0  0  0  0  0  0  0  0  0
   15.3817   23.5863  -13.5746 C   0  0  0  0  0  0  0  0  0  0  0  0
   13.4674   24.7255  -14.4964 C   0  0  0  0  0  0  0  0  0  0  0  0
   15.8912   20.4394  -19.2906 C   0  0  0  0  0  0  0  0  0  0  0  0
   16.9669   19.9882  -17.1602 C   0  0  0  0  0  0  0  0  0  0  0  0
   15.0181   24.0007  -12.2967 C   0  0  0  0  0  0  0  0  0  0  0  0
   13.1130   25.1520  -13.2209 C   0  0  0  0  0  0  0  0  0  0  0  0
   15.3411   23.1484  -18.1910 C   0  0  0  0  0  0  0  0  0  0  0  0
   14.6098   23.9472  -14.6861 C   0  0  0  0  0  0  0  0  0  0  0  0
   14.8799   24.1095  -17.3090 C   0  0  0  0  0  0  0  0  0  0  0  0
   16.1617   20.8062  -17.9662 C   0  0  0  0  0  0  0  0  0  0  0  0
   13.8910   24.7947  -12.1273 C   0  0  0  0  0  0  0  0  0  0  0  0
   14.9740   23.4555  -16.0512 C   0  0  0  0  0  0  0  0  0  0  0  0
   13.0597   25.5620  -18.2314 C   0  0  0  0  0  0  0  0  0  0  0  0
   14.4232   26.4247  -19.8142 C   0  0  0  0  0  0  0  0  0  0  0  0
   14.4599   25.5307  -17.6691 C   0  0  2  0  0  0  0  0  0  0  0  0
   15.4505   22.2318  -16.1690 N   0  0  0  0  0  0  0  0  0  0  0  0
   15.6541   22.0275  -17.4736 N   0  0  0  0  0  0  0  0  0  0  0  0
   13.1800   26.0385  -19.4757 N   0  0  0  0  0  0  0  0  0  0  0  0
   15.1893   26.1140  -18.7622 N   0  0  0  0  0  0  0  0  0  0  0  0
   12.0333   25.2022  -17.6663 O   0  0  0  0  0  0  0  0  0  0  0  0
   14.7593   27.0284  -20.8292 O   0  0  0  0  0  0  0  0  0  0  0  0
   13.5591   25.2378  -10.8962 F   0  0  0  0  0  0  0  0  0  0  0  0
  1  2  2  0
  1  3  1  0
  2  6  1  0
  3  7  2  0
  4  8  2  0
  4 11  1  0
  5  9  1  0
  5 11  2  0
  6 13  2  0
  7 13  1  0
  8 14  1  0
  9 14  2  0
 10 12  2  0
 10 20  1  0
 11 15  1  0
 12 15  1  0
 18 12  1  6
 13 20  1  0
 14 25  1  0
 15 19  2  0
 16 18  1  0
 16 21  1  0
 16 23  2  0
 17 21  1  0
 17 22  1  0
 17 24  2  0
 18 22  1  0
 19 20  1  0
M  END
$$$$
