3UEW_ligand
     RDKit          3D

 18 17  0  0  1  0  0  0  0  0999 V2000
   -1.0911    1.5325   20.9217 C   0  0  0  0  0  0  0  0  0  0  0  0
   -0.1513    1.5857   21.7473 O   0  0  0  0  0  0  0  0  0  0  0  0
   -1.7494    0.4982   20.6757 O   0  0  0  0  0  0  0  0  0  0  0  0
   -1.4631    2.7952   20.1139 C   0  0  0  0  0  0  0  0  0  0  0  0
   -1.1168    4.1214   20.8343 C   0  0  0  0  0  0  0  0  0  0  0  0
   -1.8080    5.3495   20.2340 C   0  0  0  0  0  0  0  0  0  0  0  0
   -3.2855    5.5040   20.6575 C   0  0  0  0  0  0  0  0  0  0  0  0
   -4.0078    6.6491   19.9290 C   0  0  0  0  0  0  0  0  0  0  0  0
   -3.4152    8.0359   20.2305 C   0  0  0  0  0  0  0  0  0  0  0  0
   -3.9704    9.1323   19.3203 C   0  0  0  0  0  0  0  0  0  0  0  0
   -3.2931   10.4839   19.5741 C   0  0  0  0  0  0  0  0  0  0  0  0
   -3.8735   11.6210   18.7243 C   0  0  0  0  0  0  0  0  0  0  0  0
   -3.2012   12.9557   19.0588 C   0  0  0  0  0  0  0  0  0  0  0  0
   -3.7671   14.1503   18.2790 C   0  0  0  0  0  0  0  0  0  0  0  0
   -2.9739   15.4340   18.5786 C   0  0  0  0  0  0  0  0  0  0  0  0
   -3.6810   16.7388   18.1797 C   0  0  0  0  0  0  0  0  0  0  0  0
   -3.9535   16.8987   16.6806 C   0  0  0  0  0  0  0  0  0  0  0  0
   -4.6382   18.2321   16.3635 C   0  0  0  0  0  0  0  0  0  0  0  0
  1  2  1  0
  1  3  2  0
  1  4  1  0
  4  5  1  0
  5  6  1  0
  6  7  1  0
  7  8  1  0
  8  9  1  0
  9 10  1  0
 10 11  1  0
 11 12  1  0
 12 13  1  0
 13 14  1  0
 14 15  1  0
 15 16  1  0
 16 17  1  0
 17 18  1  0
M  CHG  1   2  -1
M  END
$$$$
