2YGE_ligand
     RDKit          3D

 40 41  0  0  1  0  0  0  0  0999 V2000
   25.5316  -33.0007    0.2698 O   0  0  0  0  0  0  0  0  0  0  0  0
   19.5675  -33.9377   -1.5515 O   0  0  0  0  0  0  0  0  0  0  0  0
   18.7436  -32.9068   -3.9950 O   0  0  0  0  0  0  0  0  0  0  0  0
   17.1882  -33.7096   -5.4739 O   0  0  0  0  0  0  0  0  0  0  0  0
   22.1254  -36.7014   -9.1116 O   0  0  0  0  0  0  0  0  0  0  0  0
   22.8365  -38.4760   -6.6647 O   0  0  0  0  0  0  0  0  0  0  0  0
   25.2866  -33.1038   -7.3726 O   0  0  0  0  0  0  0  0  0  0  0  0
   24.5818  -30.7451   -6.0711 O   0  0  0  0  0  0  0  0  0  0  0  0
   26.6890  -34.8978   -3.1999 O   0  0  0  0  0  0  0  0  0  0  0  0
   25.6948  -32.5256   -1.8969 N   0  0  0  0  0  0  0  0  0  0  0  0
   16.9633  -31.6661   -4.4206 N   0  0  0  0  0  0  0  0  0  0  0  0
   25.2558  -33.3084   -0.8810 C   0  0  0  0  0  0  0  0  0  0  0  0
   24.4552  -34.4934   -1.1347 C   0  0  0  0  0  0  0  0  0  0  0  0
   23.3459  -34.4154   -1.9012 C   0  0  0  0  0  0  0  0  0  0  0  0
   22.4795  -35.5352   -2.2216 C   0  0  0  0  0  0  0  0  0  0  0  0
   21.1898  -35.4231   -2.5875 C   0  0  0  0  0  0  0  0  0  0  0  0
   20.3786  -34.1360   -2.7150 C   0  0  1  0  0  0  0  0  0  0  0  0
   19.5913  -34.0553   -4.0449 C   0  0  2  0  0  0  0  0  0  0  0  0
   20.4700  -34.0415   -5.3046 C   0  0  0  0  0  0  0  0  0  0  0  0
   20.3554  -35.0370   -6.2095 C   0  0  0  0  0  0  0  0  0  0  0  0
   21.0537  -35.1775   -7.5565 C   0  0  1  0  0  0  0  0  0  0  0  0
   21.6222  -36.6103   -7.7857 C   0  0  2  0  0  0  0  0  0  0  0  0
   22.7198  -37.0502   -6.7599 C   0  0  2  0  0  0  0  0  0  0  0  0
   24.0864  -36.3262   -6.9378 C   0  0  0  0  0  0  0  0  0  0  0  0
   25.1299  -36.4736   -5.7995 C   0  0  2  0  0  0  0  0  0  0  0  0
   26.2572  -35.4134   -5.9497 C   0  0  0  0  0  0  0  0  0  0  0  0
   25.9189  -34.0588   -5.3150 C   0  0  0  0  0  0  0  0  0  0  0  0
   25.4681  -32.9932   -6.0334 C   0  0  0  0  0  0  0  0  0  0  0  0
   25.0352  -31.7019   -5.4450 C   0  0  0  0  0  0  0  0  0  0  0  0
   25.1752  -31.6939   -3.9894 C   0  0  0  0  0  0  0  0  0  0  0  0
   25.6425  -32.7289   -3.2508 C   0  0  0  0  0  0  0  0  0  0  0  0
   26.1447  -33.9994   -3.8465 C   0  0  0  0  0  0  0  0  0  0  0  0
   24.9955  -35.7642   -0.4785 C   0  0  0  0  0  0  0  0  0  0  0  0
   18.4753  -34.8195   -1.3346 C   0  0  0  0  0  0  0  0  0  0  0  0
   17.6017  -32.8441   -4.7040 C   0  0  0  0  0  0  0  0  0  0  0  0
   21.3764  -32.8224   -5.4729 C   0  0  0  0  0  0  0  0  0  0  0  0
   20.0798  -34.7254   -8.6605 C   0  0  0  0  0  0  0  0  0  0  0  0
   23.2309  -39.2048   -7.8232 C   0  0  0  0  0  0  0  0  0  0  0  0
   25.7245  -37.8887   -5.6979 C   0  0  0  0  0  0  0  0  0  0  0  0
   26.2583  -32.4410   -8.1782 C   0  0  0  0  0  0  0  0  0  0  0  0
  1 12  2  0
 17  2  1  1
  2 34  1  0
 18  3  1  1
  3 35  1  0
  4 35  2  0
 22  5  1  6
 23  6  1  6
  6 38  1  0
  7 28  1  0
  7 40  1  0
  8 29  2  0
  9 32  2  0
 10 12  1  0
 10 31  1  0
 11 35  1  0
 12 13  1  0
 13 14  2  0
 13 33  1  0
 14 15  1  0
 15 16  2  0
 16 17  1  0
 17 18  1  0
 18 19  1  0
 19 20  2  0
 19 36  1  0
 20 21  1  0
 21 22  1  0
 21 37  1  6
 22 23  1  0
 23 24  1  0
 24 25  1  0
 25 26  1  0
 25 39  1  6
 26 27  1  0
 27 28  2  0
 27 32  1  0
 28 29  1  0
 29 30  1  0
 30 31  2  0
 31 32  1  0
M  END
$$$$
