7JY3 - prepared_ligand4
     RDKit          3D

 43 46  0  0  1  0  0  0  0  0999 V2000
   11.1964  -22.6759   48.6549 C   0  0  0  0  0  0  0  0  0  0  0  0
   12.9730  -24.4221   47.2210 C   0  0  0  0  0  0  0  0  0  0  0  0
   13.4667  -23.3062   48.0168 C   0  0  0  0  0  0  0  0  0  0  0  0
    9.5075  -19.9601   49.9447 C   0  0  0  0  0  0  0  0  0  0  0  0
    8.9860  -24.2097   46.2751 O   0  0  0  0  0  0  0  0  0  0  0  0
    9.0351  -18.3508   44.3585 C   0  0  0  0  0  0  0  0  0  0  0  0
    9.0216  -18.6752   43.0051 C   0  0  0  0  0  0  0  0  0  0  0  0
    9.0519  -20.7124   44.9471 C   0  0  0  0  0  0  0  0  0  0  0  0
    9.0356  -23.1069   45.4364 C   0  0  0  0  0  0  0  0  0  0  0  0
    9.0562  -19.3502   45.3306 C   0  0  0  0  0  0  0  0  0  0  0  0
    8.9204  -25.4292   48.3219 C   0  0  0  0  0  0  0  0  0  0  0  0
    9.2797  -24.0869   47.6698 C   0  0  1  0  0  0  0  0  0  0  0  0
   10.7484  -23.7156   47.8980 C   0  0  0  0  0  0  0  0  0  0  0  0
   12.6408  -22.4831   48.7006 C   0  0  0  0  0  0  0  0  0  0  0  0
   11.6180  -24.5427   47.2165 N   0  0  0  0  0  0  0  0  0  0  0  0
   13.7011  -25.1962   46.6043 O   0  0  0  0  0  0  0  0  0  0  0  0
   10.3532  -21.8052   49.3661 N   0  0  0  0  0  0  0  0  0  0  0  0
    9.5191  -22.1132   50.4118 C   0  0  0  0  0  0  0  0  0  0  0  0
    8.9562  -20.9131   50.8028 C   0  0  0  0  0  0  0  0  0  0  0  0
   10.3627  -20.4882   49.0990 N   0  0  0  0  0  0  0  0  0  0  0  0
    9.0428  -21.7759   45.8833 C   0  0  0  0  0  0  0  0  0  0  0  0
    9.0249  -20.0065   42.5962 C   0  0  0  0  0  0  0  0  0  0  0  0
    9.0378  -21.0429   43.5607 C   0  0  0  0  0  0  0  0  0  0  0  0
    9.0341  -22.3325   43.1371 N   0  0  0  0  0  0  0  0  0  0  0  0
    9.0457  -23.3270   44.0538 C   0  0  0  0  0  0  0  0  0  0  0  0
    9.0825  -24.6216   43.5397 N   0  0  0  0  0  0  0  0  0  0  0  0
    9.0278  -17.0528   44.7314 F   0  0  0  0  0  0  0  0  0  0  0  0
   14.5334  -23.1396   48.0520 H   0  0  0  0  0  0  0  0  0  0  0  0
    9.2973  -18.9000   49.9552 H   0  0  0  0  0  0  0  0  0  0  0  0
    9.0121  -17.8869   42.2664 H   0  0  0  0  0  0  0  0  0  0  0  0
    9.0670  -19.0948   46.3799 H   0  0  0  0  0  0  0  0  0  0  0  0
    9.0857  -25.3887   49.3973 H   0  0  0  0  0  0  0  0  0  0  0  0
    7.8768  -25.6838   48.1522 H   0  0  0  0  0  0  0  0  0  0  0  0
    9.5195  -26.2497   47.9270 H   0  0  0  0  0  0  0  0  0  0  0  0
    8.6131  -23.3415   48.1037 H   0  0  0  0  0  0  0  0  0  0  0  0
   13.0487  -21.6670   49.2703 H   0  0  0  0  0  0  0  0  0  0  0  0
   11.2567  -25.3070   46.6613 H   0  0  0  0  0  0  0  0  0  0  0  0
    9.4154  -23.1256   50.7737 H   0  0  0  0  0  0  0  0  0  0  0  0
    8.2522  -20.7448   51.6029 H   0  0  0  0  0  0  0  0  0  0  0  0
    9.0174  -21.5307   46.9323 H   0  0  0  0  0  0  0  0  0  0  0  0
    9.0172  -20.2530   41.5438 H   0  0  0  0  0  0  0  0  0  0  0  0
    9.0921  -24.7655   42.5402 H   0  0  0  0  0  0  0  0  0  0  0  0
    9.0602  -25.4011   44.1823 H   0  0  0  0  0  0  0  0  0  0  0  0
  1 13  2  0
  1 14  1  0
  1 17  1  0
  2  3  1  0
  2 15  1  0
  2 16  2  0
  3 14  2  0
  3 28  1  0
  4 19  1  0
  4 20  2  0
  4 29  1  0
  5  9  1  0
  5 12  1  0
  6  7  2  0
  6 10  1  0
  6 27  1  0
  7 22  1  0
  7 30  1  0
  8 10  2  0
  8 21  1  0
  8 23  1  0
  9 21  2  0
  9 25  1  0
 10 31  1  0
 11 12  1  0
 11 32  1  0
 11 33  1  0
 11 34  1  0
 12 13  1  0
 12 35  1  1
 13 15  1  0
 14 36  1  0
 15 37  1  0
 17 18  1  0
 17 20  1  0
 18 19  2  0
 18 38  1  0
 19 39  1  0
 21 40  1  0
 22 23  2  0
 22 41  1  0
 23 24  1  0
 24 25  2  0
 25 26  1  0
 26 42  1  0
 26 43  1  0
M  END
$$$$
