7BJ6 - prepared_ligand
     RDKit          3D

 64 68  0  0  1  0  0  0  0  0999 V2000
  -18.4578  -10.9249   16.1131 C   0  0  0  0  0  0  0  0  0  0  0  0
  -18.6904   -9.4057   15.9664 C   0  0  0  0  0  0  0  0  0  0  0  0
  -21.5247   -9.1874   13.4803 C   0  0  1  0  0  0  0  0  0  0  0  0
  -23.1128  -10.6161   14.8875 C   0  0  0  0  0  0  0  0  0  0  0  0
  -24.9080  -11.0083   13.0878 C   0  0  0  0  0  0  0  0  0  0  0  0
  -25.6771  -11.9087   12.3503 C   0  0  0  0  0  0  0  0  0  0  0  0
  -25.5097  -13.2801   12.5498 C   0  0  0  0  0  0  0  0  0  0  0  0
  -24.5766  -13.7066   13.4956 C   0  0  0  0  0  0  0  0  0  0  0  0
  -23.4479   -8.2071   14.4939 C   0  0  0  0  0  0  0  0  0  0  0  0
  -24.5077   -8.0970   15.1119 O   0  0  0  0  0  0  0  0  0  0  0  0
  -23.0248   -5.8119   13.5636 C   0  0  0  0  0  0  0  0  0  0  0  0
  -21.0017   -5.5441   12.2641 C   0  0  0  0  0  0  0  0  0  0  0  0
  -20.6745   -6.8814   12.4874 C   0  0  0  0  0  0  0  0  0  0  0  0
  -21.5543   -7.6851   13.2124 C   0  0  0  0  0  0  0  0  0  0  0  0
  -22.5866   -3.5561   12.4178 C   0  0  0  0  0  0  0  0  0  0  0  0
  -21.4950   -2.5411   12.8206 C   0  0  0  0  0  0  0  0  0  0  0  0
  -22.9215   -3.4492   10.9132 C   0  0  0  0  0  0  0  0  0  0  0  0
  -22.2985  -10.2264    9.8461 C   0  0  0  0  0  0  0  0  0  0  0  0
  -20.9631  -11.2601   12.0641 C   0  0  0  0  0  0  0  0  0  0  0  0
  -18.0457   -8.5195   17.0176 C   0  0  0  0  0  0  0  0  0  0  0  0
  -17.5024   -8.5331   15.6126 C   0  0  0  0  0  0  0  0  0  0  0  0
  -19.3353  -11.4665   17.0780 O   0  0  0  0  0  0  0  0  0  0  0  0
  -20.0873   -8.9690   15.4746 C   0  0  0  0  0  0  0  0  0  0  0  0
  -20.3530   -9.5433   14.1885 O   0  0  0  0  0  0  0  0  0  0  0  0
  -22.7065   -9.3246   14.3110 N   0  0  0  0  0  0  0  0  0  0  0  0
  -23.9860  -11.5132   14.0145 C   0  0  0  0  0  0  0  0  0  0  0  0
  -26.4311  -14.4234   11.6449 Cl  0  0  0  0  0  0  0  0  0  0  0  0
  -23.8163  -12.8462   14.2188 N   0  0  0  0  0  0  0  0  0  0  0  0
  -22.6999   -7.1505   13.7592 C   0  0  0  0  0  0  0  0  0  0  0  0
  -22.1911   -4.9988   12.7741 C   0  0  0  0  0  0  0  0  0  0  0  0
  -19.5379   -7.3954   11.9698 F   0  0  0  0  0  0  0  0  0  0  0  0
  -23.7515   -3.1409   13.1078 O   0  0  0  0  0  0  0  0  0  0  0  0
  -21.6047  -10.0223   12.1640 C   0  0  0  0  0  0  0  0  0  0  0  0
  -22.2754   -9.5162   11.0406 C   0  0  0  0  0  0  0  0  0  0  0  0
  -21.6448  -11.4507    9.7589 C   0  0  0  0  0  0  0  0  0  0  0  0
  -21.6517  -12.3270    8.2720 Cl  0  0  0  0  0  0  0  0  0  0  0  0
  -20.9776  -11.9679   10.8641 C   0  0  0  0  0  0  0  0  0  0  0  0
  -17.4312  -11.1494   16.4075 H   0  0  0  0  0  0  0  0  0  0  0  0
  -18.6356  -11.4330   15.1657 H   0  0  0  0  0  0  0  0  0  0  0  0
  -23.6492  -10.4496   15.8232 H   0  0  0  0  0  0  0  0  0  0  0  0
  -22.2034  -11.1510   15.1613 H   0  0  0  0  0  0  0  0  0  0  0  0
  -25.0417   -9.9481   12.9427 H   0  0  0  0  0  0  0  0  0  0  0  0
  -26.4009  -11.5407   11.6402 H   0  0  0  0  0  0  0  0  0  0  0  0
  -24.4225  -14.7587   13.6856 H   0  0  0  0  0  0  0  0  0  0  0  0
  -23.9424   -5.4221   13.9766 H   0  0  0  0  0  0  0  0  0  0  0  0
  -20.3391   -4.9382   11.6654 H   0  0  0  0  0  0  0  0  0  0  0  0
  -21.2576   -2.6050   13.8838 H   0  0  0  0  0  0  0  0  0  0  0  0
  -20.5702   -2.7010   12.2664 H   0  0  0  0  0  0  0  0  0  0  0  0
  -21.8041   -1.5143   12.6161 H   0  0  0  0  0  0  0  0  0  0  0  0
  -23.7818   -4.0622   10.6445 H   0  0  0  0  0  0  0  0  0  0  0  0
  -23.1580   -2.4263   10.6257 H   0  0  0  0  0  0  0  0  0  0  0  0
  -22.0850   -3.7642   10.2883 H   0  0  0  0  0  0  0  0  0  0  0  0
  -22.8070   -9.8139    8.9901 H   0  0  0  0  0  0  0  0  0  0  0  0
  -20.4426  -11.6659   12.9172 H   0  0  0  0  0  0  0  0  0  0  0  0
  -17.4626   -8.9844   17.8135 H   0  0  0  0  0  0  0  0  0  0  0  0
  -18.5859   -7.6393   17.3684 H   0  0  0  0  0  0  0  0  0  0  0  0
  -17.6667   -7.6693   14.9679 H   0  0  0  0  0  0  0  0  0  0  0  0
  -16.5362   -9.0029   15.4287 H   0  0  0  0  0  0  0  0  0  0  0  0
  -19.1203  -11.0841   17.9324 H   0  0  0  0  0  0  0  0  0  0  0  0
  -20.1494   -7.8806   15.4321 H   0  0  0  0  0  0  0  0  0  0  0  0
  -20.8376   -9.3002   16.1921 H   0  0  0  0  0  0  0  0  0  0  0  0
  -24.0543   -2.3076   12.7282 H   0  0  0  0  0  0  0  0  0  0  0  0
  -22.7791   -8.5634   11.0834 H   0  0  0  0  0  0  0  0  0  0  0  0
  -20.4738  -12.9181   10.7867 H   0  0  0  0  0  0  0  0  0  0  0  0
  1  2  1  0
  1 22  1  0
  1 38  1  0
  1 39  1  0
  2 20  1  0
  2 21  1  0
  2 23  1  0
  3 14  1  0
  3 24  1  1
  3 25  1  0
  3 33  1  0
  4 25  1  0
  4 26  1  0
  4 40  1  0
  4 41  1  0
  5  6  2  0
  5 26  1  0
  5 42  1  0
  6  7  1  0
  6 43  1  0
  7  8  2  0
  7 27  1  0
  8 28  1  0
  8 44  1  0
  9 10  2  0
  9 25  1  0
  9 29  1  0
 11 29  2  0
 11 30  1  0
 11 45  1  0
 12 13  1  0
 12 30  2  0
 12 46  1  0
 13 14  2  0
 13 31  1  0
 14 29  1  0
 15 16  1  0
 15 17  1  0
 15 30  1  0
 15 32  1  0
 16 47  1  0
 16 48  1  0
 16 49  1  0
 17 50  1  0
 17 51  1  0
 17 52  1  0
 18 34  2  0
 18 35  1  0
 18 53  1  0
 19 33  2  0
 19 37  1  0
 19 54  1  0
 20 21  1  0
 20 55  1  0
 20 56  1  0
 21 57  1  0
 21 58  1  0
 22 59  1  0
 23 24  1  0
 23 60  1  0
 23 61  1  0
 26 28  2  0
 32 62  1  0
 33 34  1  0
 34 63  1  0
 35 36  1  0
 35 37  2  0
 37 64  1  0
M  END
$$$$
