1UNL - prepared_ligand
     RDKit          3D

 52 54  0  0  1  0  0  0  0  0999 V2000
   57.4096   30.4431   29.7709 O   0  0  0  0  0  0  0  0  0  0  0  0
   58.5504   30.5213   30.6041 C   0  0  0  0  0  0  0  0  0  0  0  0
   59.8010   30.0547   29.8337 C   0  0  1  0  0  0  0  0  0  0  0  0
   61.1028   30.2087   30.6555 C   0  0  0  0  0  0  0  0  0  0  0  0
   61.5958   28.9488   31.3814 C   0  0  0  0  0  0  0  0  0  0  0  0
   59.6208   28.6958   29.3276 N   0  0  0  0  0  0  0  0  0  0  0  0
   59.2840   28.3892   28.0109 C   0  0  0  0  0  0  0  0  0  0  0  0
   58.8678   27.1121   27.8606 N   0  0  0  0  0  0  0  0  0  0  0  0
   58.6055   26.7864   26.5967 C   0  0  0  0  0  0  0  0  0  0  0  0
   58.1256   25.5989   26.1075 N   0  0  0  0  0  0  0  0  0  0  0  0
   57.8091   24.4090   26.8949 C   0  0  0  0  0  0  0  0  0  0  0  0
   56.4279   23.8604   26.5261 C   0  0  0  0  0  0  0  0  0  0  0  0
   58.9387   23.3821   26.7598 C   0  0  0  0  0  0  0  0  0  0  0  0
   58.0432   25.7816   24.7386 C   0  0  0  0  0  0  0  0  0  0  0  0
   58.7467   27.6292   25.4759 C   0  0  0  0  0  0  0  0  0  0  0  0
   58.4114   26.9696   24.3211 N   0  0  0  0  0  0  0  0  0  0  0  0
   59.4165   29.3257   27.0325 N   0  0  0  0  0  0  0  0  0  0  0  0
   59.1592   28.9441   25.7516 C   0  0  0  0  0  0  0  0  0  0  0  0
   59.2703   29.8662   24.7069 N   0  0  0  0  0  0  0  0  0  0  0  0
   59.3621   31.2977   24.9563 C   0  0  0  0  0  0  0  0  0  0  0  0
   60.7922   31.7966   25.1216 C   0  0  0  0  0  0  0  0  0  0  0  0
   61.0987   32.6612   26.1765 C   0  0  0  0  0  0  0  0  0  0  0  0
   62.3879   33.1723   26.3057 C   0  0  0  0  0  0  0  0  0  0  0  0
   63.3643   32.8277   25.3731 C   0  0  0  0  0  0  0  0  0  0  0  0
   63.0610   31.9842   24.3070 C   0  0  0  0  0  0  0  0  0  0  0  0
   61.7738   31.4687   24.1797 C   0  0  0  0  0  0  0  0  0  0  0  0
   56.6785   30.9020   30.2026 H   0  0  0  0  0  0  0  0  0  0  0  0
   58.3952   29.9357   31.5112 H   0  0  0  0  0  0  0  0  0  0  0  0
   58.6644   31.5552   30.9218 H   0  0  0  0  0  0  0  0  0  0  0  0
   59.9057   30.7431   28.9931 H   0  0  0  0  0  0  0  0  0  0  0  0
   60.9858   31.0114   31.3851 H   0  0  0  0  0  0  0  0  0  0  0  0
   61.8993   30.5533   29.9949 H   0  0  0  0  0  0  0  0  0  0  0  0
   62.4228   29.2158   32.0317 H   0  0  0  0  0  0  0  0  0  0  0  0
   60.8133   28.5051   31.9976 H   0  0  0  0  0  0  0  0  0  0  0  0
   61.9558   28.1922   30.6837 H   0  0  0  0  0  0  0  0  0  0  0  0
   59.4735   27.9698   30.0113 H   0  0  0  0  0  0  0  0  0  0  0  0
   57.7555   24.7072   27.9439 H   0  0  0  0  0  0  0  0  0  0  0  0
   56.2095   22.9576   27.0935 H   0  0  0  0  0  0  0  0  0  0  0  0
   55.6512   24.5891   26.7558 H   0  0  0  0  0  0  0  0  0  0  0  0
   56.3577   23.6040   25.4705 H   0  0  0  0  0  0  0  0  0  0  0  0
   58.7524   22.5204   27.3952 H   0  0  0  0  0  0  0  0  0  0  0  0
   59.0511   23.0287   25.7382 H   0  0  0  0  0  0  0  0  0  0  0  0
   59.8906   23.8032   27.0689 H   0  0  0  0  0  0  0  0  0  0  0  0
   57.6975   24.9711   24.1177 H   0  0  0  0  0  0  0  0  0  0  0  0
   59.0075   29.5687   23.7778 H   0  0  0  0  0  0  0  0  0  0  0  0
   58.7480   31.5766   25.8144 H   0  0  0  0  0  0  0  0  0  0  0  0
   58.9198   31.7750   24.0895 H   0  0  0  0  0  0  0  0  0  0  0  0
   60.3416   32.9345   26.8980 H   0  0  0  0  0  0  0  0  0  0  0  0
   62.6289   33.8298   27.1281 H   0  0  0  0  0  0  0  0  0  0  0  0
   64.3657   33.2184   25.4758 H   0  0  0  0  0  0  0  0  0  0  0  0
   63.8200   31.7289   23.5822 H   0  0  0  0  0  0  0  0  0  0  0  0
   61.5371   30.8243   23.3455 H   0  0  0  0  0  0  0  0  0  0  0  0
  1  2  1  0
  1 27  1  0
  2  3  1  0
  2 28  1  0
  2 29  1  0
  3  4  1  0
  3  6  1  0
  3 30  1  6
  4  5  1  0
  4 31  1  0
  4 32  1  0
  5 33  1  0
  5 34  1  0
  5 35  1  0
  6  7  1  0
  6 36  1  0
  7  8  2  0
  7 17  1  0
  8  9  1  0
  9 10  1  0
  9 15  2  0
 10 11  1  0
 10 14  1  0
 11 12  1  0
 11 13  1  0
 11 37  1  0
 12 38  1  0
 12 39  1  0
 12 40  1  0
 13 41  1  0
 13 42  1  0
 13 43  1  0
 14 16  2  0
 14 44  1  0
 15 16  1  0
 15 18  1  0
 17 18  2  0
 18 19  1  0
 19 20  1  0
 19 45  1  0
 20 21  1  0
 20 46  1  0
 20 47  1  0
 21 22  2  0
 21 26  1  0
 22 23  1  0
 22 48  1  0
 23 24  2  0
 23 49  1  0
 24 25  1  0
 24 50  1  0
 25 26  2  0
 25 51  1  0
 26 52  1  0
M  END
$$$$
