4U4S_ligand
     RDKit          3D

 14 15  0  0  1  0  0  0  0  0999 V2000
  -22.2511   44.8644   -5.6938 C   0  0  0  0  0  0  0  0  0  0  0  0
  -21.3710   45.3290   -4.7746 N   0  0  0  0  0  0  0  0  0  0  0  0
  -25.5017   43.4745   -6.3016 O   0  0  0  0  0  0  0  0  0  0  0  0
  -21.1888   44.6060   -3.6461 C   0  0  0  0  0  0  0  0  0  0  0  0
  -23.8608   41.4677   -6.6219 N   0  0  0  0  0  0  0  0  0  0  0  0
  -23.6907   43.6783   -8.0723 O   0  0  0  0  0  0  0  0  0  0  0  0
  -21.8625   43.4144   -3.3990 C   0  0  0  0  0  0  0  0  0  0  0  0
  -23.4771   41.7357   -4.1416 N   0  0  0  0  0  0  0  0  0  0  0  0
  -22.9734   43.6819   -5.5202 C   0  0  0  0  0  0  0  0  0  0  0  0
  -24.0924   40.9777   -5.2467 C   0  0  0  0  0  0  0  0  0  0  0  0
  -22.7616   42.9163   -4.3567 C   0  0  0  0  0  0  0  0  0  0  0  0
  -23.4154   40.9271   -2.9234 C   0  0  0  0  0  0  0  0  0  0  0  0
  -22.1567   40.0497   -2.9099 C   0  0  0  0  0  0  0  0  0  0  0  0
  -24.1423   43.1812   -6.7676 S   0  0  0  0  0  0  0  0  0  0  0  0
  1  2  2  0
  1  9  1  0
  2  4  1  0
  3 14  2  0
  4  7  2  0
  5 10  1  0
  5 14  1  0
  6 14  2  0
  7 11  1  0
  8 10  1  0
  8 11  1  0
  8 12  1  0
  9 11  2  0
  9 14  1  0
 12 13  1  0
M  END
$$$$
