4K77_ligand
     RDKit          3D

 18 20  0  0  1  0  0  0  0  0999 V2000
   16.7980    3.4918    1.1692 C   0  0  0  0  0  0  0  0  0  0  0  0
   17.2630    2.2310    1.1425 C   0  0  0  0  0  0  0  0  0  0  0  0
   16.6035    1.1693    0.5909 N   0  0  0  0  0  0  0  0  0  0  0  0
   15.4098    1.2693   -0.0564 C   0  0  0  0  0  0  0  0  0  0  0  0
   14.9150    0.2946   -0.6191 O   0  0  0  0  0  0  0  0  0  0  0  0
   14.7857    2.6612   -0.0006 C   0  0  0  0  0  0  0  0  0  0  0  0
   15.4664    3.7530    0.5855 C   0  0  0  0  0  0  0  0  0  0  0  0
   14.8082    4.9992    0.5780 C   0  0  0  0  0  0  0  0  0  0  0  0
   13.5611    5.1285    0.0398 N   0  0  0  0  0  0  0  0  0  0  0  0
   12.9841    4.0164   -0.4755 C   0  0  0  0  0  0  0  0  0  0  0  0
   13.5417    2.7840   -0.5335 N   0  0  0  0  0  0  0  0  0  0  0  0
   15.4378    6.1400    1.1122 N   0  0  0  0  0  0  0  0  0  0  0  0
   14.7792    7.4458    1.1967 C   0  0  0  0  0  0  0  0  0  0  0  0
   14.0059    7.5400    2.5323 C   0  0  0  0  0  0  0  0  0  0  0  0
   13.4085    8.9463    2.7321 C   0  0  0  0  0  0  0  0  0  0  0  0
   14.4952   10.0364    2.6422 C   0  0  0  0  0  0  0  0  0  0  0  0
   15.2702    9.9564    1.3150 C   0  0  0  0  0  0  0  0  0  0  0  0
   15.8491    8.5517    1.0622 C   0  0  0  0  0  0  0  0  0  0  0  0
  1  2  2  0
  1  7  1  0
  2  3  1  0
  3  4  1  0
  4  5  2  0
  4  6  1  0
  6  7  2  0
  6 11  1  0
  7  8  1  0
  8  9  2  0
  8 12  1  0
  9 10  1  0
 10 11  2  0
 12 13  1  0
 13 14  1  0
 13 18  1  0
 14 15  1  0
 15 16  1  0
 16 17  1  0
 17 18  1  0
M  END
$$$$
