7RNI - prepared_ligand1
     RDKit          3D

 65 68  0  0  1  0  0  0  0  0999 V2000
  183.8456  130.1994   30.1737 N   0  0  0  0  0  0  0  0  0  0  0  0
  183.2298  128.2407   33.0693 C   0  0  0  0  0  0  0  0  0  0  0  0
  180.6969  127.5371   29.6225 O   0  0  0  0  0  0  0  0  0  0  0  0
  183.3146  128.7873   31.6552 C   0  0  0  0  0  0  0  0  0  0  0  0
  183.3147  125.6310   31.2327 C   0  0  0  0  0  0  0  0  0  0  0  0
  183.2196  122.3438   29.3525 C   0  0  0  0  0  0  0  0  0  0  0  0
  182.4267  121.0848   29.6564 C   0  0  0  0  0  0  0  0  0  0  0  0
  180.9051  119.6093   29.5795 C   0  0  0  0  0  0  0  0  0  0  0  0
  179.7927  118.8255   29.2504 C   0  0  0  0  0  0  0  0  0  0  0  0
  179.4622  117.7670   30.0974 C   0  0  0  0  0  0  0  0  0  0  0  0
  180.2291  117.4817   31.2265 C   0  0  0  0  0  0  0  0  0  0  0  0
  181.3534  118.2326   31.5672 C   0  0  0  0  0  0  0  0  0  0  0  0
  181.6702  119.3084   30.7318 C   0  0  0  0  0  0  0  0  0  0  0  0
  183.6678  120.4551   31.8059 C   0  0  0  0  0  0  0  0  0  0  0  0
  182.6765  128.3675   30.4604 C   0  0  0  0  0  0  0  0  0  0  0  0
  185.0020  119.6779   31.5774 C   0  0  0  0  0  0  0  0  0  0  0  0
  185.8321  120.2896   30.4286 C   0  0  0  0  0  0  0  0  0  0  0  0
  185.8269  119.7917   32.8784 C   0  0  0  0  0  0  0  0  0  0  0  0
  184.7663  118.1831   31.2573 C   0  0  0  0  0  0  0  0  0  0  0  0
  183.0069  129.3358   29.5101 C   0  0  0  0  0  0  0  0  0  0  0  0
  184.5182  131.3847   29.6604 C   0  0  0  0  0  0  0  0  0  0  0  0
  182.6273  129.5218   28.0544 C   0  0  0  0  0  0  0  0  0  0  0  0
  181.7151  127.3009   30.2740 C   0  0  0  0  0  0  0  0  0  0  0  0
  180.9438  125.0202   30.7046 C   0  0  0  0  0  0  0  0  0  0  0  0
  181.4715  123.9591   29.7290 C   0  0  0  0  0  0  0  0  0  0  0  0
  183.7633  124.5098   30.2666 C   0  0  0  0  0  0  0  0  0  0  0  0
  184.0553  129.8522   31.4470 N   0  0  0  0  0  0  0  0  0  0  0  0
  181.9621  126.0834   30.8333 N   0  0  0  0  0  0  0  0  0  0  0  0
  182.7627  123.4444   30.1943 N   0  0  0  0  0  0  0  0  0  0  0  0
  181.3996  120.7058   28.9355 N   0  0  0  0  0  0  0  0  0  0  0  0
  182.6530  120.2794   30.7606 N   0  0  0  0  0  0  0  0  0  0  0  0
  184.1811  127.8223   33.3977 H   0  0  0  0  0  0  0  0  0  0  0  0
  182.9587  129.0164   33.7857 H   0  0  0  0  0  0  0  0  0  0  0  0
  182.4842  127.4549   33.1800 H   0  0  0  0  0  0  0  0  0  0  0  0
  184.0730  126.4110   31.2055 H   0  0  0  0  0  0  0  0  0  0  0  0
  183.2793  125.2370   32.2493 H   0  0  0  0  0  0  0  0  0  0  0  0
  183.1354  122.6342   28.3045 H   0  0  0  0  0  0  0  0  0  0  0  0
  184.2816  122.1720   29.5043 H   0  0  0  0  0  0  0  0  0  0  0  0
  179.1941  119.0491   28.3802 H   0  0  0  0  0  0  0  0  0  0  0  0
  178.5961  117.1595   29.8788 H   0  0  0  0  0  0  0  0  0  0  0  0
  179.9561  116.6511   31.8580 H   0  0  0  0  0  0  0  0  0  0  0  0
  181.9430  117.9893   32.4363 H   0  0  0  0  0  0  0  0  0  0  0  0
  183.8622  121.5230   31.9193 H   0  0  0  0  0  0  0  0  0  0  0  0
  183.2114  120.1533   32.7493 H   0  0  0  0  0  0  0  0  0  0  0  0
  186.7837  119.7712   30.3033 H   0  0  0  0  0  0  0  0  0  0  0  0
  185.3101  120.2205   29.4759 H   0  0  0  0  0  0  0  0  0  0  0  0
  186.0633  121.3399   30.6118 H   0  0  0  0  0  0  0  0  0  0  0  0
  186.8248  119.3768   32.7624 H   0  0  0  0  0  0  0  0  0  0  0  0
  185.9514  120.8310   33.1868 H   0  0  0  0  0  0  0  0  0  0  0  0
  185.3504  119.2632   33.7042 H   0  0  0  0  0  0  0  0  0  0  0  0
  185.7076  117.6730   31.0564 H   0  0  0  0  0  0  0  0  0  0  0  0
  184.2768  117.6637   32.0819 H   0  0  0  0  0  0  0  0  0  0  0  0
  184.1522  118.0442   30.3682 H   0  0  0  0  0  0  0  0  0  0  0  0
  184.4768  132.1846   30.4010 H   0  0  0  0  0  0  0  0  0  0  0  0
  185.5591  131.1436   29.4436 H   0  0  0  0  0  0  0  0  0  0  0  0
  184.0325  131.7344   28.7496 H   0  0  0  0  0  0  0  0  0  0  0  0
  182.0421  128.6915   27.6602 H   0  0  0  0  0  0  0  0  0  0  0  0
  182.0388  130.4266   27.9064 H   0  0  0  0  0  0  0  0  0  0  0  0
  183.5134  129.6029   27.4261 H   0  0  0  0  0  0  0  0  0  0  0  0
  180.7943  124.5280   31.6624 H   0  0  0  0  0  0  0  0  0  0  0  0
  179.9696  125.3898   30.3826 H   0  0  0  0  0  0  0  0  0  0  0  0
  181.6035  124.3937   28.7372 H   0  0  0  0  0  0  0  0  0  0  0  0
  180.7352  123.1609   29.6446 H   0  0  0  0  0  0  0  0  0  0  0  0
  184.7220  124.1055   30.5955 H   0  0  0  0  0  0  0  0  0  0  0  0
  183.8983  124.9213   29.2640 H   0  0  0  0  0  0  0  0  0  0  0  0
  1 20  1  0
  1 21  1  0
  1 27  1  0
  2  4  1  0
  2 32  1  0
  2 33  1  0
  2 34  1  0
  3 23  2  0
  4 15  1  0
  4 27  2  0
  5 26  1  0
  5 28  1  0
  5 35  1  0
  5 36  1  0
  6  7  1  0
  6 29  1  0
  6 37  1  0
  6 38  1  0
  7 30  2  0
  7 31  1  0
  8  9  2  0
  8 13  1  0
  8 30  1  0
  9 10  1  0
  9 39  1  0
 10 11  2  0
 10 40  1  0
 11 12  1  0
 11 41  1  0
 12 13  2  0
 12 42  1  0
 13 31  1  0
 14 16  1  0
 14 31  1  0
 14 43  1  0
 14 44  1  0
 15 20  2  0
 15 23  1  0
 16 17  1  0
 16 18  1  0
 16 19  1  0
 17 45  1  0
 17 46  1  0
 17 47  1  0
 18 48  1  0
 18 49  1  0
 18 50  1  0
 19 51  1  0
 19 52  1  0
 19 53  1  0
 20 22  1  0
 21 54  1  0
 21 55  1  0
 21 56  1  0
 22 57  1  0
 22 58  1  0
 22 59  1  0
 23 28  1  0
 24 25  1  0
 24 28  1  0
 24 60  1  0
 24 61  1  0
 25 29  1  0
 25 62  1  0
 25 63  1  0
 26 29  1  0
 26 64  1  0
 26 65  1  0
M  END
$$$$
