7T3F - prepared_ligand
     RDKit          3D

 40 42  0  0  1  0  0  0  0  0999 V2000
   44.7561   39.6278   69.9771 F   0  0  0  0  0  0  0  0  0  0  0  0
   44.4010   39.1429   71.1885 C   0  0  0  0  0  0  0  0  0  0  0  0
   43.6638   39.9291   72.0815 C   0  0  0  0  0  0  0  0  0  0  0  0
   43.2145   41.3242   71.6845 C   0  0  0  0  0  0  0  0  0  0  0  0
   43.3215   39.4128   73.3353 C   0  0  0  0  0  0  0  0  0  0  0  0
   43.6954   38.1137   73.6871 C   0  0  0  0  0  0  0  0  0  0  0  0
   44.4185   37.3294   72.7844 C   0  0  0  0  0  0  0  0  0  0  0  0
   44.7783   37.8484   71.5422 C   0  0  0  0  0  0  0  0  0  0  0  0
   43.2739   37.4415   75.2896 S   0  0  0  0  0  0  0  0  0  0  0  0
   42.7379   38.5232   76.1274 O   0  0  0  0  0  0  0  0  0  0  0  0
   42.5057   36.2170   75.0515 O   0  0  0  0  0  0  0  0  0  0  0  0
   44.8230   36.9395   75.9749 N   0  0  0  0  0  0  0  0  0  0  0  0
   45.8047   37.8835   76.2809 C   0  0  0  0  0  0  0  0  0  0  0  0
   45.5960   38.8401   77.2786 C   0  0  0  0  0  0  0  0  0  0  0  0
   46.5957   39.7579   77.6042 C   0  0  0  0  0  0  0  0  0  0  0  0
   46.4349   40.8133   78.6903 C   0  0  0  0  0  0  0  0  0  0  0  0
   47.4944   41.8532   78.6744 N   0  0  0  0  0  0  0  0  0  0  0  0
   47.2716   43.0243   79.5222 C   0  0  0  0  0  0  0  0  0  0  0  0
   48.7260   41.6668   78.0975 C   0  0  0  0  0  0  0  0  0  0  0  0
   49.7176   42.3718   78.2750 O   0  0  0  0  0  0  0  0  0  0  0  0
   48.8083   40.6040   77.2672 N   0  0  0  0  0  0  0  0  0  0  0  0
   47.8072   39.7085   76.9148 C   0  0  0  0  0  0  0  0  0  0  0  0
   48.0195   38.7763   75.8994 C   0  0  0  0  0  0  0  0  0  0  0  0
   47.0184   37.8570   75.5899 C   0  0  0  0  0  0  0  0  0  0  0  0
   42.4523   41.7115   72.3617 H   0  0  0  0  0  0  0  0  0  0  0  0
   44.0583   42.0132   71.6638 H   0  0  0  0  0  0  0  0  0  0  0  0
   42.7799   41.3105   70.6841 H   0  0  0  0  0  0  0  0  0  0  0  0
   42.7619   40.0207   74.0316 H   0  0  0  0  0  0  0  0  0  0  0  0
   44.7088   36.3224   73.0458 H   0  0  0  0  0  0  0  0  0  0  0  0
   45.3445   37.2448   70.8486 H   0  0  0  0  0  0  0  0  0  0  0  0
   45.1525   36.0447   75.6352 H   0  0  0  0  0  0  0  0  0  0  0  0
   44.6612   38.8665   77.8184 H   0  0  0  0  0  0  0  0  0  0  0  0
   46.4210   40.3279   79.6653 H   0  0  0  0  0  0  0  0  0  0  0  0
   45.4650   41.2969   78.5711 H   0  0  0  0  0  0  0  0  0  0  0  0
   48.0251   43.7995   79.3824 H   0  0  0  0  0  0  0  0  0  0  0  0
   46.3034   43.4695   79.2912 H   0  0  0  0  0  0  0  0  0  0  0  0
   47.2674   42.7392   80.5741 H   0  0  0  0  0  0  0  0  0  0  0  0
   49.7041   40.5069   76.8118 H   0  0  0  0  0  0  0  0  0  0  0  0
   48.9582   38.7485   75.3652 H   0  0  0  0  0  0  0  0  0  0  0  0
   47.1915   37.1236   74.8152 H   0  0  0  0  0  0  0  0  0  0  0  0
  1  2  1  0
  2  3  2  0
  2  8  1  0
  3  4  1  0
  3  5  1  0
  4 25  1  0
  4 26  1  0
  4 27  1  0
  5  6  2  0
  5 28  1  0
  6  7  1  0
  6  9  1  0
  7  8  2  0
  7 29  1  0
  8 30  1  0
  9 10  2  0
  9 11  2  0
  9 12  1  0
 12 13  1  0
 12 31  1  0
 13 14  2  0
 13 24  1  0
 14 15  1  0
 14 32  1  0
 15 16  1  0
 15 22  2  0
 16 17  1  0
 16 33  1  0
 16 34  1  0
 17 18  1  0
 17 19  1  0
 18 35  1  0
 18 36  1  0
 18 37  1  0
 19 20  2  0
 19 21  1  0
 21 22  1  0
 21 38  1  0
 22 23  1  0
 23 24  2  0
 23 39  1  0
 24 40  1  0
M  END
$$$$
