7L6D - prepared_ligand
     RDKit          3D

 48 50  0  0  1  0  0  0  0  0999 V2000
    8.0357    9.6333   21.4673 C   0  0  0  0  0  0  0  0  0  0  0  0
    6.1592    8.1791   21.9243 N   0  0  0  0  0  0  0  0  0  0  0  0
    6.2423    8.8027   24.7205 C   0  0  0  0  0  0  0  0  0  0  0  0
    6.8427   10.1516   26.7733 C   0  0  0  0  0  0  0  0  0  0  0  0
    8.2087   10.6343   29.7396 C   0  0  0  0  0  0  0  0  0  0  0  0
    7.1175    9.3972   23.7957 C   0  0  0  0  0  0  0  0  0  0  0  0
    3.8300    6.3139   21.2341 C   0  0  0  0  0  0  0  0  0  0  0  0
    9.4119   11.4789   20.7032 C   0  0  0  0  0  0  0  0  0  0  0  0
   11.2201   11.2192   18.9803 C   0  0  0  0  0  0  0  0  0  0  0  0
   10.0674   10.6419   19.7970 C   0  0  0  0  0  0  0  0  0  0  0  0
    9.6778    9.2948   19.6859 C   0  0  0  0  0  0  0  0  0  0  0  0
   10.3403    8.4597   18.7699 N   0  0  0  0  0  0  0  0  0  0  0  0
   10.2848    6.6845   18.7533 S   0  0  0  0  0  0  0  0  0  0  0  0
    8.6126    6.3277   17.9717 C   0  0  0  0  0  0  0  0  0  0  0  0
   10.2883    6.2156   20.1408 O   0  0  0  0  0  0  0  0  0  0  0  0
   11.3333    6.2557   17.8252 O   0  0  0  0  0  0  0  0  0  0  0  0
    8.6498    8.8179   20.5095 C   0  0  0  0  0  0  0  0  0  0  0  0
    7.0578    9.0646   22.4360 C   0  0  0  0  0  0  0  0  0  0  0  0
    5.3327    7.6296   22.8272 N   0  0  0  0  0  0  0  0  0  0  0  0
    5.3267    7.8608   24.2105 C   0  0  0  0  0  0  0  0  0  0  0  0
    6.2318    9.0998   26.0961 N   0  0  0  0  0  0  0  0  0  0  0  0
    6.4976   10.0769   28.0773 O   0  0  0  0  0  0  0  0  0  0  0  0
    6.9169   11.0521   29.0299 C   0  0  0  0  0  0  0  0  0  0  0  0
    7.5639   11.0293   26.2957 O   0  0  0  0  0  0  0  0  0  0  0  0
    4.3654    7.0942   24.7771 N   0  0  0  0  0  0  0  0  0  0  0  0
    3.7107    6.4445   23.7452 N   0  0  0  0  0  0  0  0  0  0  0  0
    4.2787    6.7702   22.6043 C   0  0  0  0  0  0  0  0  0  0  0  0
    8.4150   10.9779   21.5359 C   0  0  0  0  0  0  0  0  0  0  0  0
    8.4627   11.3457   30.5249 H   0  0  0  0  0  0  0  0  0  0  0  0
    8.1027    9.6531   30.2030 H   0  0  0  0  0  0  0  0  0  0  0  0
    9.0471   10.6002   29.0440 H   0  0  0  0  0  0  0  0  0  0  0  0
    7.8747   10.0934   24.1198 H   0  0  0  0  0  0  0  0  0  0  0  0
    2.9822    5.6323   21.2836 H   0  0  0  0  0  0  0  0  0  0  0  0
    3.5238    7.1564   20.6137 H   0  0  0  0  0  0  0  0  0  0  0  0
    4.6237    5.7993   20.6979 H   0  0  0  0  0  0  0  0  0  0  0  0
    9.7022   12.5156   20.7962 H   0  0  0  0  0  0  0  0  0  0  0  0
   11.2376   10.8197   17.9667 H   0  0  0  0  0  0  0  0  0  0  0  0
   11.1374   12.3024   18.8825 H   0  0  0  0  0  0  0  0  0  0  0  0
   12.1725   10.9806   19.4543 H   0  0  0  0  0  0  0  0  0  0  0  0
   11.0123    8.8937   18.1554 H   0  0  0  0  0  0  0  0  0  0  0  0
    8.4820    5.2494   17.9258 H   0  0  0  0  0  0  0  0  0  0  0  0
    7.8284    6.7666   18.5817 H   0  0  0  0  0  0  0  0  0  0  0  0
    8.5884    6.7550   16.9708 H   0  0  0  0  0  0  0  0  0  0  0  0
    8.3550    7.7822   20.4642 H   0  0  0  0  0  0  0  0  0  0  0  0
    5.6360    8.5112   26.6606 H   0  0  0  0  0  0  0  0  0  0  0  0
    7.0445   12.0323   28.5711 H   0  0  0  0  0  0  0  0  0  0  0  0
    6.1217   11.1628   29.7671 H   0  0  0  0  0  0  0  0  0  0  0  0
    7.9534   11.6389   22.2554 H   0  0  0  0  0  0  0  0  0  0  0  0
  1 17  1  0
  1 18  1  0
  1 28  2  0
  2 18  2  0
  2 19  1  0
  3  6  2  0
  3 20  1  0
  3 21  1  0
  4 21  1  0
  4 22  1  0
  4 24  2  0
  5 23  1  0
  5 29  1  0
  5 30  1  0
  5 31  1  0
  6 18  1  0
  6 32  1  0
  7 27  1  0
  7 33  1  0
  7 34  1  0
  7 35  1  0
  8 10  2  0
  8 28  1  0
  8 36  1  0
  9 10  1  0
  9 37  1  0
  9 38  1  0
  9 39  1  0
 10 11  1  0
 11 12  1  0
 11 17  2  0
 12 13  1  0
 12 40  1  0
 13 14  1  0
 13 15  2  0
 13 16  2  0
 14 41  1  0
 14 42  1  0
 14 43  1  0
 17 44  1  0
 19 20  1  0
 19 27  1  0
 20 25  2  0
 21 45  1  0
 22 23  1  0
 23 46  1  0
 23 47  1  0
 25 26  1  0
 26 27  2  0
 28 48  1  0
M  END
$$$$
