3ARY_ligand
     RDKit          3D

 17 19  0  0  1  0  0  0  0  0999 V2000
   14.1187   -7.9098   23.9459 C   0  0  0  0  0  0  0  0  0  0  0  0
   15.5150   -7.8386   24.1090 C   0  0  0  0  0  0  0  0  0  0  0  0
   16.3587   -8.4696   23.1865 C   0  0  0  0  0  0  0  0  0  0  0  0
   15.7821   -9.1428   22.0935 C   0  0  0  0  0  0  0  0  0  0  0  0
   14.4031   -9.1970   21.8861 C   0  0  0  0  0  0  0  0  0  0  0  0
   13.5917   -8.5661   22.8284 C   0  0  0  0  0  0  0  0  0  0  0  0
   17.7648   -8.6636   23.0425 C   0  0  0  0  0  0  0  0  0  0  0  0
   17.9386   -9.4876   21.9311 C   0  0  0  0  0  0  0  0  0  0  0  0
   16.7362   -9.7403   21.3247 O   0  0  0  0  0  0  0  0  0  0  0  0
   19.0651  -10.1032   21.4149 C   0  0  0  0  0  0  0  0  0  0  0  0
   19.1174  -10.8347   20.3016 N   0  0  0  0  0  0  0  0  0  0  0  0
   20.4689  -11.2873   20.0050 C   0  0  0  0  0  0  0  0  0  0  0  0
   21.1763  -11.0387   21.3320 C   0  0  0  0  0  0  0  0  0  0  0  0
   20.2713  -10.1006   21.9835 N   0  0  0  0  0  0  0  0  0  0  0  0
   13.2441   -7.3728   24.8888 N   0  0  0  0  0  0  0  0  0  0  0  0
   13.3552   -7.0127   26.0587 C   0  0  0  0  0  0  0  0  0  0  0  0
   13.7101   -6.6600   27.5639 S   0  0  0  0  0  0  0  0  0  0  0  0
  1  2  2  0
  1  6  1  0
  1 15  1  0
  2  3  1  0
  3  4  2  0
  3  7  1  0
  4  5  1  0
  4  9  1  0
  5  6  2  0
  7  8  2  0
  8  9  1  0
  8 10  1  0
 10 11  1  0
 10 14  2  0
 11 12  1  0
 12 13  1  0
 13 14  1  0
 15 16  2  0
 16 17  2  0
M  CHG  1  14   1
M  END
$$$$
