7QF4 - prepared_ligand
     RDKit          3D

 47 49  0  0  1  0  0  0  0  0999 V2000
   -1.6894   -6.3168  -13.1846 N   0  0  0  0  0  0  0  0  0  0  0  0
   -1.9178   -6.9073  -14.4445 C   0  0  0  0  0  0  0  0  0  0  0  0
   -2.7889   -7.7179  -14.7386 O   0  0  0  0  0  0  0  0  0  0  0  0
   -1.0709   -6.5653  -15.4694 N   0  0  0  0  0  0  0  0  0  0  0  0
    0.0283   -5.7530  -15.4387 C   0  0  0  0  0  0  0  0  0  0  0  0
    0.7283   -5.6054  -16.4398 O   0  0  0  0  0  0  0  0  0  0  0  0
    0.2779   -5.1421  -14.1237 C   0  0  0  0  0  0  0  0  0  0  0  0
    1.2880   -4.3693  -13.9851 N   0  0  0  0  0  0  0  0  0  0  0  0
    1.5517   -3.8292  -12.7093 C   0  0  0  0  0  0  0  0  0  0  0  0
    2.6927   -3.0365  -12.5853 C   0  0  0  0  0  0  0  0  0  0  0  0
    3.0537   -2.4916  -11.3505 C   0  0  0  0  0  0  0  0  0  0  0  0
    4.3488   -1.7044  -11.2456 C   0  0  0  0  0  0  0  0  0  0  0  0
    2.2322   -2.6992  -10.2316 C   0  0  0  0  0  0  0  0  0  0  0  0
    2.5705   -2.1170   -8.8673 C   0  0  0  0  0  0  0  0  0  0  0  0
    1.0840   -3.4813  -10.3548 C   0  0  0  0  0  0  0  0  0  0  0  0
    0.7417   -4.0817  -11.5751 C   0  0  0  0  0  0  0  0  0  0  0  0
   -0.3694   -4.9738  -11.7361 N   0  0  0  0  0  0  0  0  0  0  0  0
   -0.6880   -5.5234  -12.9973 C   0  0  0  0  0  0  0  0  0  0  0  0
   -1.2154   -5.3099  -10.5752 C   0  0  0  0  0  0  0  0  0  0  0  0
   -2.4532   -4.4032  -10.3757 C   0  0  2  0  0  0  0  0  0  0  0  0
   -2.0926   -3.0440  -10.5379 O   0  0  0  0  0  0  0  0  0  0  0  0
   -3.1362   -4.5756   -8.9878 C   0  0  2  0  0  0  0  0  0  0  0  0
   -2.2131   -4.2886   -7.9494 O   0  0  0  0  0  0  0  0  0  0  0  0
   -3.7571   -5.9779   -8.7363 C   0  0  2  0  0  0  0  0  0  0  0  0
   -4.6897   -6.2982   -9.7471 O   0  0  0  0  0  0  0  0  0  0  0  0
   -4.4344   -6.1490   -7.3574 C   0  0  0  0  0  0  0  0  0  0  0  0
   -5.4589   -5.1916   -7.1727 O   0  0  0  0  0  0  0  0  0  0  0  0
   -1.2726   -7.0004  -16.3592 H   0  0  0  0  0  0  0  0  0  0  0  0
    3.3261   -2.8771  -13.4436 H   0  0  0  0  0  0  0  0  0  0  0  0
    4.2046   -0.7889  -10.6811 H   0  0  0  0  0  0  0  0  0  0  0  0
    5.0996   -2.2950  -10.7225 H   0  0  0  0  0  0  0  0  0  0  0  0
    4.7360   -1.4127  -12.2213 H   0  0  0  0  0  0  0  0  0  0  0  0
    1.8048   -2.3250   -8.1211 H   0  0  0  0  0  0  0  0  0  0  0  0
    3.5095   -2.5335   -8.5078 H   0  0  0  0  0  0  0  0  0  0  0  0
    2.6760   -1.0356   -8.9269 H   0  0  0  0  0  0  0  0  0  0  0  0
    0.4768   -3.6197   -9.4756 H   0  0  0  0  0  0  0  0  0  0  0  0
   -0.6097   -5.3071   -9.6727 H   0  0  0  0  0  0  0  0  0  0  0  0
   -1.5507   -6.3454  -10.6458 H   0  0  0  0  0  0  0  0  0  0  0  0
   -3.1678   -4.6264  -11.1673 H   0  0  0  0  0  0  0  0  0  0  0  0
   -2.8742   -2.4967  -10.4014 H   0  0  0  0  0  0  0  0  0  0  0  0
   -3.9353   -3.8354   -8.9153 H   0  0  0  0  0  0  0  0  0  0  0  0
   -2.6813   -4.2834   -7.1066 H   0  0  0  0  0  0  0  0  0  0  0  0
   -2.9746   -6.7316   -8.8099 H   0  0  0  0  0  0  0  0  0  0  0  0
   -5.5261   -5.8708   -9.5349 H   0  0  0  0  0  0  0  0  0  0  0  0
   -3.7083   -6.0485   -6.5513 H   0  0  0  0  0  0  0  0  0  0  0  0
   -4.8730   -7.1389   -7.2534 H   0  0  0  0  0  0  0  0  0  0  0  0
   -6.0257   -5.4851   -6.4515 H   0  0  0  0  0  0  0  0  0  0  0  0
  1  2  1  0
  1 18  2  0
  2  3  2  0
  2  4  1  0
  4  5  1  0
  4 28  1  0
  5  6  2  0
  5  7  1  0
  7  8  2  0
  7 18  1  0
  8  9  1  0
  9 10  1  0
  9 16  2  0
 10 11  2  0
 10 29  1  0
 11 12  1  0
 11 13  1  0
 12 30  1  0
 12 31  1  0
 12 32  1  0
 13 14  1  0
 13 15  2  0
 14 33  1  0
 14 34  1  0
 14 35  1  0
 15 16  1  0
 15 36  1  0
 16 17  1  0
 17 18  1  0
 17 19  1  0
 19 20  1  0
 19 37  1  0
 19 38  1  0
 20 21  1  0
 20 22  1  0
 20 39  1  6
 21 40  1  0
 22 23  1  0
 22 24  1  0
 22 41  1  6
 23 42  1  0
 24 25  1  0
 24 26  1  0
 24 43  1  1
 25 44  1  0
 26 27  1  0
 26 45  1  0
 26 46  1  0
 27 47  1  0
M  END
$$$$
