7QE4 - prepared_ligand9
     RDKit          3D

 30 30  0  0  1  0  0  0  0  0999 V2000
   50.2834   17.5606   73.9730 C   0  0  2  0  0  0  0  0  0  0  0  0
   51.2220   18.6803   74.4904 C   0  0  1  0  0  0  0  0  0  0  0  0
   51.4685   18.5127   76.0174 C   0  0  2  0  0  0  0  0  0  0  0  0
   50.2378   18.1064   76.8737 C   0  0  2  0  0  0  0  0  0  0  0  0
   49.2350   17.1963   76.0942 C   0  0  1  0  0  0  0  0  0  0  0  0
   47.8586   16.8376   76.7387 C   0  0  0  0  0  0  0  0  0  0  0  0
   53.0106   20.2026   73.5988 C   0  0  0  0  0  0  0  0  0  0  0  0
   54.1489   20.3193   72.6000 C   0  0  0  0  0  0  0  0  0  0  0  0
   52.3988   18.9984   73.6670 N   0  0  0  0  0  0  0  0  0  0  0  0
   49.9941   17.7990   72.6540 O   0  0  0  0  0  0  0  0  0  0  0  0
   52.1367   19.6387   76.5644 O   0  0  0  0  0  0  0  0  0  0  0  0
   49.7410   19.1388   77.7088 O   0  0  0  0  0  0  0  0  0  0  0  0
   49.0834   17.5397   74.7105 O   0  0  0  0  0  0  0  0  0  0  0  0
   47.4065   17.5681   77.8624 O   0  0  0  0  0  0  0  0  0  0  0  0
   52.6982   21.1839   74.2781 O   0  0  0  0  0  0  0  0  0  0  0  0
   50.7373   16.5782   74.1074 H   0  0  0  0  0  0  0  0  0  0  0  0
   50.6971   19.5956   74.3132 H   0  0  0  0  0  0  0  0  0  0  0  0
   52.1768   17.6896   76.1092 H   0  0  0  0  0  0  0  0  0  0  0  0
   50.6336   17.4926   77.6605 H   0  0  0  0  0  0  0  0  0  0  0  0
   49.7364   16.2455   76.0010 H   0  0  0  0  0  0  0  0  0  0  0  0
   47.8183   15.8067   77.0409 H   0  0  0  0  0  0  0  0  0  0  0  0
   47.1092   16.8246   75.9647 H   0  0  0  0  0  0  0  0  0  0  0  0
   54.2987   21.3550   72.3044 H   0  0  0  0  0  0  0  0  0  0  0  0
   55.0750   19.9510   73.0353 H   0  0  0  0  0  0  0  0  0  0  0  0
   53.9349   19.7378   71.7057 H   0  0  0  0  0  0  0  0  0  0  0  0
   52.7191   18.2638   73.0522 H   0  0  0  0  0  0  0  0  0  0  0  0
   49.3415   18.5034   72.6241 H   0  0  0  0  0  0  0  0  0  0  0  0
   51.5833   20.4110   76.4150 H   0  0  0  0  0  0  0  0  0  0  0  0
   49.1286   18.7477   78.3413 H   0  0  0  0  0  0  0  0  0  0  0  0
   46.6135   17.1414   78.1994 H   0  0  0  0  0  0  0  0  0  0  0  0
  1  2  1  0
  1 10  1  0
  1 13  1  0
  1 16  1  6
  2  3  1  0
  2  9  1  0
  2 17  1  1
  3  4  1  0
  3 11  1  0
  3 18  1  6
  4  5  1  0
  4 12  1  0
  4 19  1  1
  5  6  1  0
  5 13  1  0
  5 20  1  6
  6 14  1  0
  6 21  1  0
  6 22  1  0
  7  8  1  0
  7  9  1  0
  7 15  2  0
  8 23  1  0
  8 24  1  0
  8 25  1  0
  9 26  1  0
 10 27  1  0
 11 28  1  0
 12 29  1  0
 14 30  1  0
M  END
$$$$
