3FV2_ligand
     RDKit          3D

 20 21  0  0  1  0  0  0  0  0999 V2000
   -3.4267    4.2586  -10.4325 O   0  0  0  0  0  0  0  0  0  0  0  0
   -4.0735    3.3626  -11.0163 C   0  0  0  0  0  0  0  0  0  0  0  0
   -3.5650    2.2858  -11.3833 O   0  0  0  0  0  0  0  0  0  0  0  0
   -5.5723    3.5208  -11.3281 C   0  0  1  0  0  0  0  0  0  0  0  0
   -6.0657    4.8691  -10.7906 N   0  0  0  0  0  0  0  0  0  0  0  0
   -5.8479    3.4359  -12.8530 C   0  0  0  0  0  0  0  0  0  0  0  0
   -7.3111    3.1488  -13.2730 C   0  0  2  0  0  0  0  0  0  0  0  0
   -7.8868    1.8513  -12.6151 C   0  0  0  0  0  0  0  0  0  0  0  0
   -9.0900    1.8314  -12.2706 O   0  0  0  0  0  0  0  0  0  0  0  0
   -7.1347    0.8606  -12.4812 O   0  0  0  0  0  0  0  0  0  0  0  0
   -7.4502    3.2339  -14.8130 C   0  0  0  0  0  0  0  0  0  0  0  0
   -8.0693    4.2715  -12.7980 O   0  0  0  0  0  0  0  0  0  0  0  0
   -8.4691    5.1300  -13.8577 C   0  0  1  0  0  0  0  0  0  0  0  0
   -8.6287    4.1476  -15.0254 C   0  0  2  0  0  0  0  0  0  0  0  0
   -9.7924    3.3319  -14.9059 O   0  0  0  0  0  0  0  0  0  0  0  0
  -11.0061    4.0566  -14.8024 C   0  0  0  0  0  0  0  0  0  0  0  0
  -10.9805    4.8643  -13.4937 C   0  0  1  0  0  0  0  0  0  0  0  0
  -11.0754    4.0249  -12.3638 O   0  0  0  0  0  0  0  0  0  0  0  0
   -9.7858    5.8423  -13.4862 C   0  0  1  0  0  0  0  0  0  0  0  0
   -9.6264    6.5639  -12.2802 O   0  0  0  0  0  0  0  0  0  0  0  0
  1  2  2  0
  2  3  1  0
  2  4  1  0
  4  5  1  6
  4  6  1  0
  7  6  1  6
  7  8  1  0
  7 11  1  0
  7 12  1  0
  8  9  2  0
  8 10  1  0
 14 11  1  1
 13 12  1  1
 13 14  1  0
 13 19  1  0
 14 15  1  0
 15 16  1  0
 16 17  1  0
 17 18  1  1
 17 19  1  0
 19 20  1  1
M  CHG  3   3  -1   5   1  10  -1
M  END
$$$$
