4E5W_ligand
     RDKit          3D

 28 32  0  0  1  0  0  0  0  0999 V2000
   12.3719    9.9547    0.7830 C   0  0  0  0  0  0  0  0  0  0  0  0
   14.4987   12.1411    3.0562 C   0  0  0  0  0  0  0  0  0  0  0  0
   14.8757    9.3622    0.9858 C   0  0  0  0  0  0  0  0  0  0  0  0
   12.1412   11.3172    0.1489 C   0  0  0  0  0  0  0  0  0  0  0  0
   14.7086   13.6674    2.9929 C   0  0  0  0  0  0  0  0  0  0  0  0
   15.8111   11.4134    3.4190 C   0  0  0  0  0  0  0  0  0  0  0  0
   13.9486   11.6224    1.6978 N   0  0  2  0  0  0  0  0  0  0  0  0
   12.6572   12.2942    1.1939 C   0  0  0  0  0  0  0  0  0  0  0  0
   13.6597   10.0957    1.6215 C   0  0  1  0  0  0  0  0  0  0  0  0
   15.6646   10.0147    0.2972 O   0  0  0  0  0  0  0  0  0  0  0  0
   14.9960    8.0138    1.1222 N   0  0  0  0  0  0  0  0  0  0  0  0
   16.1406    7.3077    0.5037 C   0  0  0  0  0  0  0  0  0  0  0  0
   15.6031    6.0605   -0.2235 C   0  0  0  0  0  0  0  0  0  0  0  0
   14.7623    5.1758    0.7068 C   0  0  0  0  0  0  0  0  0  0  0  0
   13.6273    6.0071    1.3346 C   0  0  0  0  0  0  0  0  0  0  0  0
   14.1916    7.2294    2.0836 C   0  0  0  0  0  0  0  0  0  0  0  0
   14.2545    4.0372   -0.0672 N   0  0  0  0  0  0  0  0  0  0  0  0
   13.0523    3.8991   -0.7409 C   0  0  0  0  0  0  0  0  0  0  0  0
   12.8746    2.7350   -1.3199 N   0  0  0  0  0  0  0  0  0  0  0  0
   14.0155    2.0385   -1.0392 C   0  0  0  0  0  0  0  0  0  0  0  0
   14.8979    2.8362   -0.2916 C   0  0  0  0  0  0  0  0  0  0  0  0
   16.1514    2.3235    0.1074 C   0  0  0  0  0  0  0  0  0  0  0  0
   17.2693    2.8411    0.8362 C   0  0  0  0  0  0  0  0  0  0  0  0
   18.1676    1.7913    0.9157 C   0  0  0  0  0  0  0  0  0  0  0  0
   17.6529    0.6841    0.2761 N   0  0  0  0  0  0  0  0  0  0  0  0
   16.4190    0.9860   -0.2573 C   0  0  0  0  0  0  0  0  0  0  0  0
   15.6083    0.1866   -0.9643 N   0  0  0  0  0  0  0  0  0  0  0  0
   14.4171    0.7286   -1.3578 C   0  0  0  0  0  0  0  0  0  0  0  0
  1  4  1  0
  1  9  1  0
  2  5  1  0
  2  6  1  0
  7  2  1  1
  9  3  1  6
  3 10  2  0
  3 11  1  0
  4  8  1  0
  7  8  1  0
  7  9  1  0
 11 12  1  0
 11 16  1  0
 12 13  1  0
 13 14  1  0
 14 15  1  0
 14 17  1  0
 15 16  1  0
 17 18  1  0
 17 21  1  0
 18 19  2  0
 19 20  1  0
 20 21  2  0
 20 28  1  0
 21 22  1  0
 22 23  1  0
 22 26  2  0
 23 24  2  0
 24 25  1  0
 25 26  1  0
 26 27  1  0
 27 28  2  0
M  CHG  1   7   1
M  END
$$$$
