1GPK_ligand
     RDKit          3D

 18 20  0  0  1  0  0  0  0  0999 V2000
    0.8411   68.8246   60.7151 C   0  0  0  0  0  0  0  0  0  0  0  0
    0.3330   69.1618   59.6484 O   0  0  0  0  0  0  0  0  0  0  0  0
    2.0990   68.3192   60.7920 N   0  0  0  0  0  0  0  0  0  0  0  0
    0.1531   68.8811   61.9922 C   0  0  0  0  0  0  0  0  0  0  0  0
    0.6624   68.3298   63.1138 C   0  0  0  0  0  0  0  0  0  0  0  0
    1.9879   67.6928   63.1177 C   0  0  0  0  0  0  0  0  0  0  0  0
    2.6515   67.7640   61.9232 C   0  0  0  0  0  0  0  0  0  0  0  0
    4.0524   67.1911   61.7163 C   0  0  0  0  0  0  0  0  0  0  0  0
    4.7001   66.6485   63.0081 C   0  0  1  0  0  0  0  0  0  0  0  0
    5.2964   67.7903   63.8305 C   0  0  0  0  0  0  0  0  0  0  0  0
    4.6019   63.5490   63.6060 C   0  0  0  0  0  0  0  0  0  0  0  0
    3.6167   64.5947   64.0906 C   0  0  0  0  0  0  0  0  0  0  0  0
    3.6341   65.9319   63.8548 C   0  0  0  0  0  0  0  0  0  0  0  0
    2.5917   66.9700   64.3544 C   0  0  2  0  0  0  0  0  0  0  0  0
    1.4478   66.3155   65.1613 N   0  0  0  0  0  0  0  0  0  0  0  0
    3.2923   67.9665   65.3350 C   0  0  0  0  0  0  0  0  0  0  0  0
    4.6897   68.3887   64.8751 C   0  0  0  0  0  0  0  0  0  0  0  0
    5.3815   69.4725   65.6790 C   0  0  0  0  0  0  0  0  0  0  0  0
  1  2  2  0
  1  3  1  0
  1  4  1  0
  3  7  1  0
  4  5  2  0
  5  6  1  0
  6  7  2  0
  6 14  1  0
  7  8  1  0
  9  8  1  6
  9 10  1  0
  9 13  1  0
 10 17  2  0
 11 12  1  0
 12 13  2  0
 13 14  1  0
 14 15  1  1
 14 16  1  0
 16 17  1  0
 17 18  1  0
M  CHG  1  15   1
M  END
$$$$
