6TW5 - prepared_ligand5
     RDKit          3D

 60 63  0  0  1  0  0  0  0  0999 V2000
    1.5551   -8.1191   86.5287 C   0  0  0  0  0  0  0  0  0  0  0  0
    5.2279  -10.3206   87.3893 C   0  0  0  0  0  0  0  0  0  0  0  0
    6.5916  -10.6227   87.5001 C   0  0  0  0  0  0  0  0  0  0  0  0
    3.2290   -8.9813   88.0714 C   0  0  0  0  0  0  0  0  0  0  0  0
    2.8462   -8.5610   86.7899 C   0  0  0  0  0  0  0  0  0  0  0  0
    4.6456   -9.4039   88.2734 C   0  0  0  0  0  0  0  0  0  0  0  0
    5.4275   -8.8457   89.2914 C   0  0  0  0  0  0  0  0  0  0  0  0
    8.7173  -11.3348   87.3048 N   0  0  0  0  0  0  0  0  0  0  0  0
    6.7925   -9.1084   89.4297 C   0  0  0  0  0  0  0  0  0  0  0  0
    7.3584   -9.9897   88.5046 C   0  0  0  0  0  0  0  0  0  0  0  0
   -0.6359   -7.6377   87.3012 F   0  0  0  0  0  0  0  0  0  0  0  0
    0.6166   -8.0820   87.5500 C   0  0  0  0  0  0  0  0  0  0  0  0
    0.9712   -8.5023   88.8287 C   0  0  0  0  0  0  0  0  0  0  0  0
    2.2738   -8.9622   89.1104 C   0  0  0  0  0  0  0  0  0  0  0  0
    8.6451  -10.4484   88.3132 N   0  0  0  0  0  0  0  0  0  0  0  0
    7.5074  -11.4901   86.8255 C   0  0  0  0  0  0  0  0  0  0  0  0
    7.2121  -12.5131   85.7381 C   0  0  0  0  0  0  0  0  0  0  0  0
    7.4296  -11.9477   84.3167 N   0  0  0  0  0  0  0  0  0  0  0  0
    6.4390  -10.8280   83.9456 C   0  0  0  0  0  0  0  0  0  0  0  0
    8.8866  -11.5410   84.0322 C   0  0  0  0  0  0  0  0  0  0  0  0
    2.6551   -9.4116   90.3657 O   0  0  0  0  0  0  0  0  0  0  0  0
    1.7334   -9.2824   91.4482 C   0  0  0  0  0  0  0  0  0  0  0  0
    2.3688   -9.6713   92.7864 C   0  0  0  0  0  0  0  0  0  0  0  0
    2.6539  -11.1541   92.9202 C   0  0  0  0  0  0  0  0  0  0  0  0
    1.7535  -12.1817   93.2694 C   0  0  0  0  0  0  0  0  0  0  0  0
    0.2700  -12.0991   93.5495 C   0  0  0  0  0  0  0  0  0  0  0  0
    2.3510  -13.3449   93.3694 N   0  0  0  0  0  0  0  0  0  0  0  0
    3.6253  -13.1154   93.0482 N   0  0  0  0  0  0  0  0  0  0  0  0
    4.5649  -14.2192   93.1447 C   0  0  0  0  0  0  0  0  0  0  0  0
    3.8730  -11.7977   92.7417 C   0  0  0  0  0  0  0  0  0  0  0  0
    5.2282  -11.2743   92.3159 C   0  0  0  0  0  0  0  0  0  0  0  0
    1.2874   -7.7978   85.5353 H   0  0  0  0  0  0  0  0  0  0  0  0
    4.6352  -10.7788   86.6126 H   0  0  0  0  0  0  0  0  0  0  0  0
    3.5651   -8.5641   85.9837 H   0  0  0  0  0  0  0  0  0  0  0  0
    4.9682   -8.1625   89.9872 H   0  0  0  0  0  0  0  0  0  0  0  0
    7.3747   -8.6417   90.2112 H   0  0  0  0  0  0  0  0  0  0  0  0
    0.2060   -8.4704   89.5878 H   0  0  0  0  0  0  0  0  0  0  0  0
    9.4769  -10.2108   88.8376 H   0  0  0  0  0  0  0  0  0  0  0  0
    6.1806  -12.8698   85.7454 H   0  0  0  0  0  0  0  0  0  0  0  0
    7.8596  -13.3909   85.7811 H   0  0  0  0  0  0  0  0  0  0  0  0
    7.2158  -12.7120   83.6869 H   0  0  0  0  0  0  0  0  0  0  0  0
    6.5706  -10.6179   82.8835 H   0  0  0  0  0  0  0  0  0  0  0  0
    5.4345  -11.2046   84.1425 H   0  0  0  0  0  0  0  0  0  0  0  0
    6.6705   -9.9585   84.5571 H   0  0  0  0  0  0  0  0  0  0  0  0
    8.9466  -11.3459   82.9628 H   0  0  0  0  0  0  0  0  0  0  0  0
    9.1119  -10.6470   84.6153 H   0  0  0  0  0  0  0  0  0  0  0  0
    9.5226  -12.3813   84.3132 H   0  0  0  0  0  0  0  0  0  0  0  0
    0.8410   -9.8857   91.2696 H   0  0  0  0  0  0  0  0  0  0  0  0
    1.4238   -8.2407   91.5234 H   0  0  0  0  0  0  0  0  0  0  0  0
    1.6721   -9.3896   93.5758 H   0  0  0  0  0  0  0  0  0  0  0  0
    3.2538   -9.0610   92.9713 H   0  0  0  0  0  0  0  0  0  0  0  0
    0.0341  -12.4263   94.5625 H   0  0  0  0  0  0  0  0  0  0  0  0
   -0.1114  -11.0833   93.4476 H   0  0  0  0  0  0  0  0  0  0  0  0
   -0.3052  -12.7240   92.8653 H   0  0  0  0  0  0  0  0  0  0  0  0
    5.4181  -14.0448   92.4916 H   0  0  0  0  0  0  0  0  0  0  0  0
    4.9003  -14.3031   94.1770 H   0  0  0  0  0  0  0  0  0  0  0  0
    4.0853  -15.1530   92.8515 H   0  0  0  0  0  0  0  0  0  0  0  0
    6.0249  -11.6028   92.9776 H   0  0  0  0  0  0  0  0  0  0  0  0
    5.4836  -11.6081   91.3107 H   0  0  0  0  0  0  0  0  0  0  0  0
    5.2624  -10.1850   92.3039 H   0  0  0  0  0  0  0  0  0  0  0  0
  1  5  2  0
  1 12  1  0
  1 32  1  0
  2  3  2  0
  2  6  1  0
  2 33  1  0
  3 10  1  0
  3 16  1  0
  4  5  1  0
  4  6  1  0
  4 14  2  0
  5 34  1  0
  6  7  2  0
  7  9  1  0
  7 35  1  0
  8 15  1  0
  8 16  2  0
  9 10  2  0
  9 36  1  0
 10 15  1  0
 11 12  1  0
 12 13  2  0
 13 14  1  0
 13 37  1  0
 14 21  1  0
 15 38  1  0
 16 17  1  0
 17 18  1  0
 17 39  1  0
 17 40  1  0
 18 19  1  0
 18 20  1  0
 18 41  1  0
 19 42  1  0
 19 43  1  0
 19 44  1  0
 20 45  1  0
 20 46  1  0
 20 47  1  0
 21 22  1  0
 22 23  1  0
 22 48  1  0
 22 49  1  0
 23 24  1  0
 23 50  1  0
 23 51  1  0
 24 25  1  0
 24 30  2  0
 25 26  1  0
 25 27  2  0
 26 52  1  0
 26 53  1  0
 26 54  1  0
 27 28  1  0
 28 29  1  0
 28 30  1  0
 29 55  1  0
 29 56  1  0
 29 57  1  0
 30 31  1  0
 31 58  1  0
 31 59  1  0
 31 60  1  0
M  CHG  1  18   1
M  END
$$$$
