7TH4 - prepared_ligand4
     RDKit          3D

 55 57  0  0  1  0  0  0  0  0999 V2000
   27.3539    5.2215    6.0868 N   0  0  0  0  0  0  0  0  0  0  0  0
   28.5767    5.3223    6.4660 C   0  0  0  0  0  0  0  0  0  0  0  0
   29.6345    5.2517    5.5425 N   0  0  0  0  0  0  0  0  0  0  0  0
   28.8737    5.5049    7.7857 N   0  0  0  0  0  0  0  0  0  0  0  0
   27.9799    5.5850    8.8039 C   0  0  0  0  0  0  0  0  0  0  0  0
   28.3741    5.8782    9.9307 O   0  0  0  0  0  0  0  0  0  0  0  0
   26.5857    5.3548    8.3766 C   0  0  0  0  0  0  0  0  0  0  0  0
   25.5165    5.4311    9.2718 N   0  0  0  0  0  0  0  0  0  0  0  0
   24.2243    5.9619    8.7542 C   0  0  2  0  0  0  0  0  0  0  0  0
   23.9349    5.2224    7.4069 C   0  0  0  0  0  0  0  0  0  0  0  0
   25.1010    5.2775    6.5348 N   0  0  0  0  0  0  0  0  0  0  0  0
   26.3726    5.2638    7.0332 C   0  0  0  0  0  0  0  0  0  0  0  0
   24.2168    7.5004    8.6238 C   0  0  0  0  0  0  0  0  0  0  0  0
   24.6164    8.1512    9.8676 N   0  0  0  0  0  0  0  0  0  0  0  0
   24.8539   12.2958   10.4547 C   0  0  0  0  0  0  0  0  0  0  0  0
   25.2906   11.4000   11.4380 C   0  0  0  0  0  0  0  0  0  0  0  0
   25.2060   10.0298   11.2170 C   0  0  0  0  0  0  0  0  0  0  0  0
   24.6912    9.5399   10.0164 C   0  0  0  0  0  0  0  0  0  0  0  0
   24.2697   10.4301    9.0265 C   0  0  0  0  0  0  0  0  0  0  0  0
   24.3357   11.7993    9.2524 C   0  0  0  0  0  0  0  0  0  0  0  0
   24.9311   13.7842   10.6569 C   0  0  0  0  0  0  0  0  0  0  0  0
   24.1000   14.5218   10.1314 O   0  0  0  0  0  0  0  0  0  0  0  0
   25.9651   14.2538   11.3799 N   0  0  0  0  0  0  0  0  0  0  0  0
   26.2995   15.6863   11.5344 C   0  0  1  0  0  0  0  0  0  0  0  0
   27.1712   15.8983   12.7978 C   0  0  0  0  0  0  0  0  0  0  0  0
   26.4020   15.5704   14.1017 C   0  0  0  0  0  0  0  0  0  0  0  0
   27.1848   15.7501   15.4117 C   0  0  0  0  0  0  0  0  0  0  0  0
   28.3699   16.1497   15.3680 O   0  0  0  0  0  0  0  0  0  0  0  0
   26.5684   15.4627   16.4617 O   0  0  0  0  0  0  0  0  0  0  0  0
   27.0307   16.3074   10.2810 C   0  0  0  0  0  0  0  0  0  0  0  0
   27.7254   15.5290    9.5861 O   0  0  0  0  0  0  0  0  0  0  0  0
   26.8551   17.5382   10.1320 O   0  0  0  0  0  0  0  0  0  0  0  0
   25.4868    4.8497   10.5038 C   0  0  0  0  0  0  0  0  0  0  0  0
   26.4129    4.2601   11.0563 O   0  0  0  0  0  0  0  0  0  0  0  0
   30.5578    5.0039    5.8721 H   0  0  0  0  0  0  0  0  0  0  0  0
   29.4469    4.8833    4.6215 H   0  0  0  0  0  0  0  0  0  0  0  0
   29.8434    5.6340    8.0496 H   0  0  0  0  0  0  0  0  0  0  0  0
   23.4011    5.7108    9.4266 H   0  0  0  0  0  0  0  0  0  0  0  0
   23.0748    5.6531    6.8936 H   0  0  0  0  0  0  0  0  0  0  0  0
   23.7133    4.1717    7.5990 H   0  0  0  0  0  0  0  0  0  0  0  0
   24.9242    5.1557    5.5454 H   0  0  0  0  0  0  0  0  0  0  0  0
   23.2336    7.8598    8.3158 H   0  0  0  0  0  0  0  0  0  0  0  0
   24.9057    7.8138    7.8374 H   0  0  0  0  0  0  0  0  0  0  0  0
   25.1435    7.5963   10.5270 H   0  0  0  0  0  0  0  0  0  0  0  0
   25.6799   11.7532   12.3816 H   0  0  0  0  0  0  0  0  0  0  0  0
   25.5346    9.3502   11.9903 H   0  0  0  0  0  0  0  0  0  0  0  0
   23.8809   10.0747    8.0844 H   0  0  0  0  0  0  0  0  0  0  0  0
   23.9957   12.4720    8.4771 H   0  0  0  0  0  0  0  0  0  0  0  0
   26.5499   13.6053   11.8886 H   0  0  0  0  0  0  0  0  0  0  0  0
   25.3808   16.2479   11.7061 H   0  0  0  0  0  0  0  0  0  0  0  0
   27.5072   16.9363   12.8505 H   0  0  0  0  0  0  0  0  0  0  0  0
   28.0772   15.2934   12.7319 H   0  0  0  0  0  0  0  0  0  0  0  0
   26.0441   14.5408   14.0675 H   0  0  0  0  0  0  0  0  0  0  0  0
   25.5110   16.1984   14.1544 H   0  0  0  0  0  0  0  0  0  0  0  0
   24.5039    4.9734   10.9860 H   0  0  0  0  0  0  0  0  0  0  0  0
  1  2  2  0
  1 12  1  0
  2  3  1  0
  2  4  1  0
  3 35  1  0
  3 36  1  0
  4  5  1  0
  4 37  1  0
  5  6  2  0
  5  7  1  0
  7  8  1  0
  7 12  2  0
  8  9  1  0
  8 33  1  0
  9 10  1  0
  9 13  1  0
  9 38  1  1
 10 11  1  0
 10 39  1  0
 10 40  1  0
 11 12  1  0
 11 41  1  0
 13 14  1  0
 13 42  1  0
 13 43  1  0
 14 18  1  0
 14 44  1  0
 15 16  2  0
 15 20  1  0
 15 21  1  0
 16 17  1  0
 16 45  1  0
 17 18  2  0
 17 46  1  0
 18 19  1  0
 19 20  2  0
 19 47  1  0
 20 48  1  0
 21 22  2  0
 21 23  1  0
 23 24  1  0
 23 49  1  0
 24 25  1  0
 24 30  1  0
 24 50  1  1
 25 26  1  0
 25 51  1  0
 25 52  1  0
 26 27  1  0
 26 53  1  0
 26 54  1  0
 27 28  2  0
 27 29  1  0
 30 31  2  0
 30 32  1  0
 33 34  2  0
 33 55  1  0
M  CHG  2  29  -1  32  -1
M  END
$$$$
