7LT0 - prepared_ligand
     RDKit          3D

 48 51  0  0  1  0  0  0  0  0999 V2000
  -34.2762  -11.1870  -25.1781 C   0  0  0  0  0  0  0  0  0  0  0  0
  -35.5141  -11.3438  -24.5495 C   0  0  0  0  0  0  0  0  0  0  0  0
  -35.5842  -11.9451  -23.2987 C   0  0  0  0  0  0  0  0  0  0  0  0
  -34.4271  -12.3929  -22.6713 C   0  0  0  0  0  0  0  0  0  0  0  0
  -33.1850  -12.2823  -23.3093 C   0  0  0  0  0  0  0  0  0  0  0  0
  -33.1118  -11.6732  -24.5676 C   0  0  0  0  0  0  0  0  0  0  0  0
  -34.2095  -10.4499  -26.4817 C   0  0  0  0  0  0  0  0  0  0  0  0
  -33.7308   -9.1855  -26.4560 N   0  0  0  0  0  0  0  0  0  0  0  0
  -34.6165  -10.9987  -27.5035 O   0  0  0  0  0  0  0  0  0  0  0  0
  -33.6896   -8.3466  -27.6513 C   0  0  0  0  0  0  0  0  0  0  0  0
  -33.5309   -6.9604  -27.0795 C   0  0  0  0  0  0  0  0  0  0  0  0
  -33.3279   -7.0268  -25.7056 C   0  0  0  0  0  0  0  0  0  0  0  0
  -33.3413   -8.4595  -25.2445 C   0  0  0  0  0  0  0  0  0  0  0  0
  -33.5477   -5.7241  -27.7253 C   0  0  0  0  0  0  0  0  0  0  0  0
  -33.3685   -4.5549  -26.9856 C   0  0  0  0  0  0  0  0  0  0  0  0
  -33.1643   -4.6235  -25.6078 C   0  0  0  0  0  0  0  0  0  0  0  0
  -33.1385   -5.8611  -24.9650 C   0  0  0  0  0  0  0  0  0  0  0  0
  -31.7393  -12.8560  -22.4498 S   0  0  0  0  0  0  0  0  0  0  0  0
  -30.4391  -13.0121  -23.6336 C   0  0  0  0  0  0  0  0  0  0  0  0
  -34.5252  -12.9101  -21.4086 O   0  0  0  0  0  0  0  0  0  0  0  0
  -30.2099  -14.2405  -24.2525 C   0  0  0  0  0  0  0  0  0  0  0  0
  -29.0918  -14.4282  -25.0732 C   0  0  0  0  0  0  0  0  0  0  0  0
  -28.2015  -13.3578  -25.2832 C   0  0  0  0  0  0  0  0  0  0  0  0
  -28.4444  -12.1287  -24.6582 C   0  0  0  0  0  0  0  0  0  0  0  0
  -29.5575  -11.9540  -23.8384 C   0  0  0  0  0  0  0  0  0  0  0  0
  -26.9611  -13.5071  -26.1549 C   0  0  0  0  0  0  0  0  0  0  0  0
  -28.8754  -15.8003  -25.6997 C   0  0  0  0  0  0  0  0  0  0  0  0
  -36.4221  -10.9753  -25.0070 H   0  0  0  0  0  0  0  0  0  0  0  0
  -36.5377  -12.0412  -22.8051 H   0  0  0  0  0  0  0  0  0  0  0  0
  -32.1570  -11.5456  -25.0568 H   0  0  0  0  0  0  0  0  0  0  0  0
  -34.5981   -8.4564  -28.2447 H   0  0  0  0  0  0  0  0  0  0  0  0
  -32.8479   -8.6334  -28.2814 H   0  0  0  0  0  0  0  0  0  0  0  0
  -32.3645   -8.7866  -24.8888 H   0  0  0  0  0  0  0  0  0  0  0  0
  -34.0504   -8.6277  -24.4355 H   0  0  0  0  0  0  0  0  0  0  0  0
  -33.6924   -5.6610  -28.7919 H   0  0  0  0  0  0  0  0  0  0  0  0
  -33.3781   -3.5943  -27.4750 H   0  0  0  0  0  0  0  0  0  0  0  0
  -33.0217   -3.7170  -25.0396 H   0  0  0  0  0  0  0  0  0  0  0  0
  -32.9713   -5.9047  -23.8986 H   0  0  0  0  0  0  0  0  0  0  0  0
  -33.6821  -13.2309  -21.0809 H   0  0  0  0  0  0  0  0  0  0  0  0
  -30.8823  -15.0624  -24.0591 H   0  0  0  0  0  0  0  0  0  0  0  0
  -27.7586  -11.3050  -24.7888 H   0  0  0  0  0  0  0  0  0  0  0  0
  -29.7129  -11.0109  -23.3353 H   0  0  0  0  0  0  0  0  0  0  0  0
  -26.3213  -12.6247  -26.1185 H   0  0  0  0  0  0  0  0  0  0  0  0
  -26.3655  -14.3587  -25.8238 H   0  0  0  0  0  0  0  0  0  0  0  0
  -27.2450  -13.6844  -27.1928 H   0  0  0  0  0  0  0  0  0  0  0  0
  -28.2092  -15.7783  -26.5605 H   0  0  0  0  0  0  0  0  0  0  0  0
  -28.4748  -16.4949  -24.9611 H   0  0  0  0  0  0  0  0  0  0  0  0
  -29.8202  -16.2058  -26.0604 H   0  0  0  0  0  0  0  0  0  0  0  0
  1  2  2  0
  1  6  1  0
  1  7  1  0
  2  3  1  0
  2 28  1  0
  3  4  2  0
  3 29  1  0
  4  5  1  0
  4 20  1  0
  5  6  2  0
  5 18  1  0
  6 30  1  0
  7  8  1  0
  7  9  2  0
  8 10  1  0
  8 13  1  0
 10 11  1  0
 10 31  1  0
 10 32  1  0
 11 12  2  0
 11 14  1  0
 12 13  1  0
 12 17  1  0
 13 33  1  0
 13 34  1  0
 14 15  2  0
 14 35  1  0
 15 16  1  0
 15 36  1  0
 16 17  2  0
 16 37  1  0
 17 38  1  0
 18 19  1  0
 19 21  2  0
 19 25  1  0
 20 39  1  0
 21 22  1  0
 21 40  1  0
 22 23  2  0
 22 27  1  0
 23 24  1  0
 23 26  1  0
 24 25  2  0
 24 41  1  0
 25 42  1  0
 26 43  1  0
 26 44  1  0
 26 45  1  0
 27 46  1  0
 27 47  1  0
 27 48  1  0
M  END
$$$$
