6Z5Z - prepared_ligand3
     RDKit          3D

 24 24  0  0  1  0  0  0  0  0999 V2000
   -1.9960   14.9697   -7.6726 C   0  0  0  0  0  0  0  0  0  0  0  0
   -1.7073   13.8892   -8.7277 C   0  0  1  0  0  0  0  0  0  0  0  0
   -0.7348   12.7930   -8.2030 C   0  0  2  0  0  0  0  0  0  0  0  0
   -0.3410   11.8404   -9.3529 C   0  0  1  0  0  0  0  0  0  0  0  0
    0.2029   12.6208  -10.5637 C   0  0  1  0  0  0  0  0  0  0  0  0
   -0.7508   13.7698  -10.9415 C   0  0  0  0  0  0  0  0  0  0  0  0
   -2.7047   14.4804   -6.5444 O   0  0  0  0  0  0  0  0  0  0  0  0
   -2.9101   13.3064   -9.0737 O   0  0  0  0  0  0  0  0  0  0  0  0
   -1.2227   12.0799   -7.0739 O   0  0  0  0  0  0  0  0  0  0  0  0
    0.5294   10.8098   -8.9314 O   0  0  0  0  0  0  0  0  0  0  0  0
    1.5110   13.1288  -10.3942 O   0  0  0  0  0  0  0  0  0  0  0  0
   -1.1309   14.5760   -9.8175 O   0  0  0  0  0  0  0  0  0  0  0  0
   -2.5684   15.7797   -8.1264 H   0  0  0  0  0  0  0  0  0  0  0  0
   -1.0465   15.3927   -7.3433 H   0  0  0  0  0  0  0  0  0  0  0  0
    0.1644   13.3047   -7.8541 H   0  0  0  0  0  0  0  0  0  0  0  0
   -1.2369   11.3132   -9.6792 H   0  0  0  0  0  0  0  0  0  0  0  0
    0.2792   11.9369  -11.4091 H   0  0  0  0  0  0  0  0  0  0  0  0
   -1.6459   13.4078  -11.4433 H   0  0  0  0  0  0  0  0  0  0  0  0
   -0.2727   14.4239  -11.6721 H   0  0  0  0  0  0  0  0  0  0  0  0
   -3.0623   15.2336   -6.0603 H   0  0  0  0  0  0  0  0  0  0  0  0
   -3.2245   12.8187   -8.3061 H   0  0  0  0  0  0  0  0  0  0  0  0
   -1.5358   12.7216   -6.4272 H   0  0  0  0  0  0  0  0  0  0  0  0
    1.3218   11.1983   -8.5402 H   0  0  0  0  0  0  0  0  0  0  0  0
    2.1166   12.4026  -10.2107 H   0  0  0  0  0  0  0  0  0  0  0  0
  1  2  1  0
  1  7  1  0
  1 13  1  0
  1 14  1  0
  2  3  1  0
  2  8  1  6
  2 12  1  0
  3  4  1  0
  3  9  1  0
  3 15  1  1
  4  5  1  0
  4 10  1  0
  4 16  1  6
  5  6  1  0
  5 11  1  0
  5 17  1  6
  6 12  1  0
  6 18  1  0
  6 19  1  0
  7 20  1  0
  8 21  1  0
  9 22  1  0
 10 23  1  0
 11 24  1  0
M  END
$$$$
