8D39 - prepared_ligand
     RDKit          3D

 26 27  0  0  1  0  0  0  0  0999 V2000
    2.3497   -0.2867   23.8933 C   0  0  0  0  0  0  0  0  0  0  0  0
    2.4348   -1.4590   23.1498 C   0  0  0  0  0  0  0  0  0  0  0  0
    2.7538   -1.4013   21.7973 C   0  0  0  0  0  0  0  0  0  0  0  0
    2.9860   -0.1675   21.1779 C   0  0  0  0  0  0  0  0  0  0  0  0
    2.8270    1.0054   21.9290 C   0  0  0  0  0  0  0  0  0  0  0  0
    2.5104    0.9457   23.2801 C   0  0  0  0  0  0  0  0  0  0  0  0
    3.3653   -0.1317   19.7264 C   0  0  0  0  0  0  0  0  0  0  0  0
    3.7093    1.1619   19.0799 C   0  0  0  0  0  0  0  0  0  0  0  0
    4.7782    1.9365   19.5339 C   0  0  0  0  0  0  0  0  0  0  0  0
    5.0317    3.1764   18.9549 C   0  0  0  0  0  0  0  0  0  0  0  0
    4.2297    3.6601   17.9022 C   0  0  0  0  0  0  0  0  0  0  0  0
    3.2103    2.8263   17.4117 C   0  0  0  0  0  0  0  0  0  0  0  0
    2.9523    1.5946   17.9961 C   0  0  0  0  0  0  0  0  0  0  0  0
    4.4311    5.0446   17.3355 C   0  0  0  0  0  0  0  0  0  0  0  0
    3.3247   -1.1518   19.0385 O   0  0  0  0  0  0  0  0  0  0  0  0
    3.5735    5.5041   16.5444 O   0  0  0  0  0  0  0  0  0  0  0  0
    5.4290    5.7096   17.6929 O   0  0  0  0  0  0  0  0  0  0  0  0
    2.1354   -0.3300   24.9510 H   0  0  0  0  0  0  0  0  0  0  0  0
    2.2641   -2.4083   23.6306 H   0  0  0  0  0  0  0  0  0  0  0  0
    2.8374   -2.3198   21.2364 H   0  0  0  0  0  0  0  0  0  0  0  0
    2.9611    1.9785   21.4921 H   0  0  0  0  0  0  0  0  0  0  0  0
    2.4111    1.8509   23.8574 H   0  0  0  0  0  0  0  0  0  0  0  0
    5.3975    1.5975   20.3507 H   0  0  0  0  0  0  0  0  0  0  0  0
    5.8423    3.7656   19.3573 H   0  0  0  0  0  0  0  0  0  0  0  0
    2.5780    3.1378   16.5930 H   0  0  0  0  0  0  0  0  0  0  0  0
    2.1255    1.0040   17.6384 H   0  0  0  0  0  0  0  0  0  0  0  0
  1  2  2  0
  1  6  1  0
  1 18  1  0
  2  3  1  0
  2 19  1  0
  3  4  2  0
  3 20  1  0
  4  5  1  0
  4  7  1  0
  5  6  2  0
  5 21  1  0
  6 22  1  0
  7  8  1  0
  7 15  2  0
  8  9  2  0
  8 13  1  0
  9 10  1  0
  9 23  1  0
 10 11  2  0
 10 24  1  0
 11 12  1  0
 11 14  1  0
 12 13  2  0
 12 25  1  0
 13 26  1  0
 14 16  2  0
 14 17  1  0
M  CHG  1  17  -1
M  END
$$$$
