7OFK - prepared_ligand
     RDKit          3D

 53 55  0  0  1  0  0  0  0  0999 V2000
  -27.4509   -0.0548   -8.9201 C   0  0  0  0  0  0  0  0  0  0  0  0
  -27.9178    0.7232  -10.1534 C   0  0  0  0  0  0  0  0  0  0  0  0
  -26.3585   -2.0689  -13.9883 C   0  0  0  0  0  0  0  0  0  0  0  0
  -26.4639   -1.9449  -15.3771 C   0  0  0  0  0  0  0  0  0  0  0  0
  -27.1279   -0.8522  -15.9339 C   0  0  0  0  0  0  0  0  0  0  0  0
  -27.7222    0.0963  -15.1083 C   0  0  0  0  0  0  0  0  0  0  0  0
  -27.6152   -0.0240  -13.7204 C   0  0  0  0  0  0  0  0  0  0  0  0
  -28.0672    0.9352  -12.6408 C   0  0  2  0  0  0  0  0  0  0  0  0
  -27.3975    2.3000  -12.8958 C   0  0  0  0  0  0  0  0  0  0  0  0
  -27.7297    4.4568  -14.0902 C   0  0  0  0  0  0  0  0  0  0  0  0
  -27.1195    7.0193  -15.0780 C   0  0  0  0  0  0  0  0  0  0  0  0
  -26.2824    6.3908  -14.1482 C   0  0  0  0  0  0  0  0  0  0  0  0
  -26.5790    5.1301  -13.6619 C   0  0  0  0  0  0  0  0  0  0  0  0
  -26.7675    8.4259  -15.6233 C   0  0  0  0  0  0  0  0  0  0  0  0
  -27.8864    9.4573  -15.2753 C   0  0  0  0  0  0  0  0  0  0  0  0
  -24.1511   -2.3494  -17.0234 C   0  0  0  0  0  0  0  0  0  0  0  0
  -28.5526    1.7602   -9.9658 O   0  0  0  0  0  0  0  0  0  0  0  0
  -27.6274    0.2639  -11.3989 N   0  0  0  0  0  0  0  0  0  0  0  0
  -26.8776   -0.9655  -11.6618 C   0  0  0  0  0  0  0  0  0  0  0  0
  -26.9225   -1.0939  -13.1641 C   0  0  0  0  0  0  0  0  0  0  0  0
  -26.2590    2.4889  -12.4737 O   0  0  0  0  0  0  0  0  0  0  0  0
  -28.1060    3.1758  -13.6427 N   0  0  0  0  0  0  0  0  0  0  0  0
  -28.5826    5.0794  -15.0042 C   0  0  0  0  0  0  0  0  0  0  0  0
  -28.2782    6.3471  -15.4973 C   0  0  0  0  0  0  0  0  0  0  0  0
  -25.5849    8.9345  -15.0041 O   0  0  0  0  0  0  0  0  0  0  0  0
  -27.5091   10.7107  -15.5342 F   0  0  0  0  0  0  0  0  0  0  0  0
  -29.0181    9.2526  -15.9510 F   0  0  0  0  0  0  0  0  0  0  0  0
  -28.1892    9.4192  -13.9798 F   0  0  0  0  0  0  0  0  0  0  0  0
  -26.4593    8.3790  -17.1528 C   0  0  0  0  0  0  0  0  0  0  0  0
  -26.0643    9.5675  -17.6144 F   0  0  0  0  0  0  0  0  0  0  0  0
  -27.5188    8.0226  -17.8793 F   0  0  0  0  0  0  0  0  0  0  0  0
  -25.4819    7.5148  -17.4362 F   0  0  0  0  0  0  0  0  0  0  0  0
  -25.7483   -3.1597  -16.4630 S   0  0  0  0  0  0  0  0  0  0  0  0
  -25.4256   -4.3425  -15.6593 O   0  0  0  0  0  0  0  0  0  0  0  0
  -26.6364   -3.2653  -17.6274 O   0  0  0  0  0  0  0  0  0  0  0  0
  -26.5531   -0.6449   -9.0995 H   0  0  0  0  0  0  0  0  0  0  0  0
  -27.2288    0.6352   -8.1061 H   0  0  0  0  0  0  0  0  0  0  0  0
  -28.2447   -0.7212   -8.5863 H   0  0  0  0  0  0  0  0  0  0  0  0
  -25.8253   -2.9039  -13.5593 H   0  0  0  0  0  0  0  0  0  0  0  0
  -27.1939   -0.7413  -17.0069 H   0  0  0  0  0  0  0  0  0  0  0  0
  -28.2368    0.9347  -15.5532 H   0  0  0  0  0  0  0  0  0  0  0  0
  -29.1462    1.0833  -12.6287 H   0  0  0  0  0  0  0  0  0  0  0  0
  -25.3851    6.8656  -13.7819 H   0  0  0  0  0  0  0  0  0  0  0  0
  -25.8872    4.7193  -12.9506 H   0  0  0  0  0  0  0  0  0  0  0  0
  -23.5535   -3.0879  -17.5554 H   0  0  0  0  0  0  0  0  0  0  0  0
  -24.3888   -1.5075  -17.6727 H   0  0  0  0  0  0  0  0  0  0  0  0
  -23.6175   -1.9953  -16.1475 H   0  0  0  0  0  0  0  0  0  0  0  0
  -27.3283   -1.8107  -11.1440 H   0  0  0  0  0  0  0  0  0  0  0  0
  -25.8565   -0.8751  -11.2899 H   0  0  0  0  0  0  0  0  0  0  0  0
  -29.0170    2.8676  -13.9556 H   0  0  0  0  0  0  0  0  0  0  0  0
  -29.4809    4.5829  -15.3442 H   0  0  0  0  0  0  0  0  0  0  0  0
  -28.9542    6.7977  -16.2083 H   0  0  0  0  0  0  0  0  0  0  0  0
  -25.2714    9.7074  -15.4896 H   0  0  0  0  0  0  0  0  0  0  0  0
  1  2  1  0
  1 36  1  0
  1 37  1  0
  1 38  1  0
  2 17  2  0
  2 18  1  0
  3  4  2  0
  3 20  1  0
  3 39  1  0
  4  5  1  0
  4 33  1  0
  5  6  2  0
  5 40  1  0
  6  7  1  0
  6 41  1  0
  7  8  1  0
  7 20  2  0
  8  9  1  0
  8 18  1  0
  8 42  1  1
  9 21  2  0
  9 22  1  0
 10 13  2  0
 10 22  1  0
 10 23  1  0
 11 12  2  0
 11 14  1  0
 11 24  1  0
 12 13  1  0
 12 43  1  0
 13 44  1  0
 14 15  1  0
 14 25  1  0
 14 29  1  0
 15 26  1  0
 15 27  1  0
 15 28  1  0
 16 33  1  0
 16 45  1  0
 16 46  1  0
 16 47  1  0
 18 19  1  0
 19 20  1  0
 19 48  1  0
 19 49  1  0
 22 50  1  0
 23 24  2  0
 23 51  1  0
 24 52  1  0
 25 53  1  0
 29 30  1  0
 29 31  1  0
 29 32  1  0
 33 34  2  0
 33 35  2  0
M  END
$$$$
