7NF0 - prepared_ligand2
     RDKit          3D

 66 69  0  0  1  0  0  0  0  0999 V2000
   12.2529   29.7266   41.9854 C   0  0  0  0  0  0  0  0  0  0  0  0
   13.1377   29.8734   40.9586 N   0  0  0  0  0  0  0  0  0  0  0  0
   13.6591   28.9326   40.1275 C   0  0  0  0  0  0  0  0  0  0  0  0
   13.1310   27.5880   40.3897 C   0  0  0  0  0  0  0  0  0  0  0  0
   12.2524   27.3991   41.4060 C   0  0  0  0  0  0  0  0  0  0  0  0
   11.8035   28.4544   42.1542 N   0  0  0  0  0  0  0  0  0  0  0  0
   13.5386   26.5073   39.6209 N   0  0  0  0  0  0  0  0  0  0  0  0
   13.3668   25.1771   40.1067 C   0  0  0  0  0  0  0  0  0  0  0  0
   12.4659   24.9958   41.1835 C   0  0  0  0  0  0  0  0  0  0  0  0
   11.7319   26.1244   41.6734 N   0  0  0  0  0  0  0  0  0  0  0  0
   14.0740   24.1025   39.5047 C   0  0  0  0  0  0  0  0  0  0  0  0
   13.8067   22.7935   40.0085 C   0  0  0  0  0  0  0  0  0  0  0  0
   12.8972   22.6102   41.0713 C   0  0  0  0  0  0  0  0  0  0  0  0
   12.2796   23.7039   41.6686 C   0  0  0  0  0  0  0  0  0  0  0  0
   13.3916   26.5386   38.1593 C   0  0  1  0  0  0  0  0  0  0  0  0
   14.3641   25.5541   37.4672 C   0  0  0  0  0  0  0  0  0  0  0  0
   15.0885   24.5203   38.3839 C   0  0  0  0  0  0  0  0  0  0  0  0
   11.9409   30.6509   42.7236 O   0  0  0  0  0  0  0  0  0  0  0  0
   12.5092   21.2240   41.5826 C   0  0  0  0  0  0  0  0  0  0  0  0
   14.4894   21.5441   39.4469 C   0  0  0  0  0  0  0  0  0  0  0  0
   12.0503   26.3292   37.7559 O   0  0  0  0  0  0  0  0  0  0  0  0
   15.5805   23.4160   37.4139 C   0  0  0  0  0  0  0  0  0  0  0  0
   16.3054   25.2011   39.0653 C   0  0  0  0  0  0  0  0  0  0  0  0
   10.5856   25.9469   42.5901 C   0  0  0  0  0  0  0  0  0  0  0  0
   14.5207   29.2425   39.3073 O   0  0  0  0  0  0  0  0  0  0  0  0
   10.8499   26.1449   44.0996 C   0  0  1  0  0  0  0  0  0  0  0  0
    9.5617   26.0597   44.9646 C   0  0  1  0  0  0  0  0  0  0  0  0
    9.8047   26.1942   46.4958 C   0  0  1  0  0  0  0  0  0  0  0  0
   10.5354   27.4964   46.9022 C   0  0  0  0  0  0  0  0  0  0  0  0
   11.8069   25.2055   44.5450 O   0  0  0  0  0  0  0  0  0  0  0  0
    8.6468   27.0513   44.5183 O   0  0  0  0  0  0  0  0  0  0  0  0
    8.5609   26.0930   47.1691 O   0  0  0  0  0  0  0  0  0  0  0  0
   10.9560   27.5001   48.2533 O   0  0  0  0  0  0  0  0  0  0  0  0
   10.0107   28.2942   49.4852 P   0  0  0  0  0  0  0  0  0  0  0  0
   10.7742   28.0924   50.8086 O   0  0  0  0  0  0  0  0  0  0  0  0
    8.6671   27.5570   49.4811 O   0  0  0  0  0  0  0  0  0  0  0  0
    9.8914   29.7682   49.0603 O   0  0  0  0  0  0  0  0  0  0  0  0
   13.4893   30.8083   40.8206 H   0  0  0  0  0  0  0  0  0  0  0  0
   11.0712   28.3196   42.8333 H   0  0  0  0  0  0  0  0  0  0  0  0
   11.6129   23.5199   42.4967 H   0  0  0  0  0  0  0  0  0  0  0  0
   13.6309   27.5348   37.7974 H   0  0  0  0  0  0  0  0  0  0  0  0
   15.1074   26.1386   36.9241 H   0  0  0  0  0  0  0  0  0  0  0  0
   13.8118   25.0330   36.6818 H   0  0  0  0  0  0  0  0  0  0  0  0
   11.6992   21.2611   42.3064 H   0  0  0  0  0  0  0  0  0  0  0  0
   12.1600   20.6016   40.7580 H   0  0  0  0  0  0  0  0  0  0  0  0
   13.3576   20.7209   42.0449 H   0  0  0  0  0  0  0  0  0  0  0  0
   14.3350   20.6339   40.0195 H   0  0  0  0  0  0  0  0  0  0  0  0
   14.1596   21.3337   38.4324 H   0  0  0  0  0  0  0  0  0  0  0  0
   15.5628   21.6633   39.4599 H   0  0  0  0  0  0  0  0  0  0  0  0
   11.9854   26.5537   36.8202 H   0  0  0  0  0  0  0  0  0  0  0  0
   16.1203   23.8536   36.5737 H   0  0  0  0  0  0  0  0  0  0  0  0
   16.3048   22.7454   37.8631 H   0  0  0  0  0  0  0  0  0  0  0  0
   14.7659   22.8378   36.9823 H   0  0  0  0  0  0  0  0  0  0  0  0
   17.0703   25.4667   38.3348 H   0  0  0  0  0  0  0  0  0  0  0  0
   16.0529   26.1184   39.5952 H   0  0  0  0  0  0  0  0  0  0  0  0
   16.7610   24.5406   39.8007 H   0  0  0  0  0  0  0  0  0  0  0  0
   10.1164   24.9809   42.4330 H   0  0  0  0  0  0  0  0  0  0  0  0
    9.8004   26.6186   42.2395 H   0  0  0  0  0  0  0  0  0  0  0  0
   11.2946   27.1259   44.2433 H   0  0  0  0  0  0  0  0  0  0  0  0
    9.0935   25.0931   44.7757 H   0  0  0  0  0  0  0  0  0  0  0  0
   10.3966   25.3467   46.8359 H   0  0  0  0  0  0  0  0  0  0  0  0
    9.9478   28.3843   46.6654 H   0  0  0  0  0  0  0  0  0  0  0  0
   11.4571   27.5752   46.3334 H   0  0  0  0  0  0  0  0  0  0  0  0
   12.6119   25.3434   44.0370 H   0  0  0  0  0  0  0  0  0  0  0  0
    7.8896   27.0387   45.1142 H   0  0  0  0  0  0  0  0  0  0  0  0
    8.6353   26.5508   48.0193 H   0  0  0  0  0  0  0  0  0  0  0  0
  1  2  1  0
  1  6  1  0
  1 18  2  0
  2  3  1  0
  2 38  1  0
  3  4  1  0
  3 25  2  0
  4  5  2  0
  4  7  1  0
  5  6  1  0
  5 10  1  0
  6 39  1  0
  7  8  1  0
  7 15  1  0
  8  9  2  0
  8 11  1  0
  9 10  1  0
  9 14  1  0
 10 24  1  0
 11 12  2  0
 11 17  1  0
 12 13  1  0
 12 20  1  0
 13 14  2  0
 13 19  1  0
 14 40  1  0
 15 16  1  0
 15 21  1  0
 15 41  1  6
 16 17  1  0
 16 42  1  0
 16 43  1  0
 17 22  1  0
 17 23  1  0
 19 44  1  0
 19 45  1  0
 19 46  1  0
 20 47  1  0
 20 48  1  0
 20 49  1  0
 21 50  1  0
 22 51  1  0
 22 52  1  0
 22 53  1  0
 23 54  1  0
 23 55  1  0
 23 56  1  0
 24 26  1  0
 24 57  1  0
 24 58  1  0
 26 27  1  0
 26 30  1  0
 26 59  1  6
 27 28  1  0
 27 31  1  0
 27 60  1  1
 28 29  1  0
 28 32  1  0
 28 61  1  1
 29 33  1  0
 29 62  1  0
 29 63  1  0
 30 64  1  0
 31 65  1  0
 32 66  1  0
 33 34  1  0
 34 35  2  0
 34 36  1  0
 34 37  1  0
M  CHG  2  36  -1  37  -1
M  END
$$$$
