4WIV_ligand
     RDKit          3D

 27 30  0  0  1  0  0  0  0  0999 V2000
   12.6566   -9.3996  -11.1761 O   0  0  0  0  0  0  0  0  0  0  0  0
   13.5990   -8.5688  -10.6712 C   0  0  0  0  0  0  0  0  0  0  0  0
   13.1355   -7.2655  -10.7318 C   0  0  0  0  0  0  0  0  0  0  0  0
   11.8750   -7.3817  -11.3343 C   0  0  0  0  0  0  0  0  0  0  0  0
   10.8608   -6.3100  -11.6585 C   0  0  0  0  0  0  0  0  0  0  0  0
   14.8651   -9.2180  -10.1697 C   0  0  0  0  0  0  0  0  0  0  0  0
   13.8073   -6.0403  -10.2217 C   0  0  0  0  0  0  0  0  0  0  0  0
   13.9258   -4.8896  -11.0033 C   0  0  0  0  0  0  0  0  0  0  0  0
   15.6702   -2.5311   -8.5691 C   0  0  0  0  0  0  0  0  0  0  0  0
   16.8680   -0.7693   -8.5394 C   0  0  0  0  0  0  0  0  0  0  0  0
   15.7778   -2.1627   -7.2124 C   0  0  0  0  0  0  0  0  0  0  0  0
   11.5690   -8.6335  -11.5874 N   0  0  0  0  0  0  0  0  0  0  0  0
   14.3026   -6.0473   -8.9179 C   0  0  0  0  0  0  0  0  0  0  0  0
   14.8918   -4.9066   -8.3887 C   0  0  0  0  0  0  0  0  0  0  0  0
   14.9999   -3.7414   -9.1550 C   0  0  0  0  0  0  0  0  0  0  0  0
   14.5251   -3.7481  -10.4737 C   0  0  0  0  0  0  0  0  0  0  0  0
   16.2818   -1.6694   -9.3625 N   0  0  0  0  0  0  0  0  0  0  0  0
   16.5878   -1.0498   -7.1934 N   0  0  0  0  0  0  0  0  0  0  0  0
   17.6747    0.3524   -8.8071 C   0  0  0  0  0  0  0  0  0  0  0  0
   18.1753    1.1372   -7.8182 N   0  0  0  0  0  0  0  0  0  0  0  0
   17.8848    0.8238   -6.5314 C   0  0  0  0  0  0  0  0  0  0  0  0
   17.0914   -0.2664   -6.1821 C   0  0  0  0  0  0  0  0  0  0  0  0
   15.2692   -2.7089   -6.0557 N   0  0  0  0  0  0  0  0  0  0  0  0
   13.9527   -2.4596   -5.4682 C   0  0  0  0  0  0  0  0  0  0  0  0
   13.6092   -3.6242   -4.5171 C   0  0  0  0  0  0  0  0  0  0  0  0
   13.9690   -1.1448   -4.6603 C   0  0  0  0  0  0  0  0  0  0  0  0
   12.8528   -2.3812   -6.5529 C   0  0  0  0  0  0  0  0  0  0  0  0
  1  2  1  0
  1 12  1  0
  2  3  2  0
  2  6  1  0
  3  4  1  0
  3  7  1  0
  4  5  1  0
  4 12  2  0
  7  8  2  0
  7 13  1  0
  8 16  1  0
  9 11  2  0
  9 15  1  0
  9 17  1  0
 10 17  2  0
 10 18  1  0
 10 19  1  0
 11 18  1  0
 11 23  1  0
 13 14  2  0
 14 15  1  0
 15 16  2  0
 18 22  1  0
 19 20  2  0
 20 21  1  0
 21 22  2  0
 23 24  1  0
 24 25  1  0
 24 26  1  0
 24 27  1  0
M  END
$$$$
