3DD0_ligand
     RDKit          3D

 16 17  0  0  1  0  0  0  0  0999 V2000
   -5.3921   -0.4201   16.2846 N   0  0  0  0  0  0  0  0  0  0  0  0
   -3.7156    3.5384   15.3498 C   0  0  0  0  0  0  0  0  0  0  0  0
   -4.8361    4.2695   14.8841 C   0  0  0  0  0  0  0  0  0  0  0  0
   -4.6772    5.4363   14.1272 C   0  0  0  0  0  0  0  0  0  0  0  0
   -3.3856    5.8918   13.8566 C   0  0  0  0  0  0  0  0  0  0  0  0
   -2.0542    7.7667   13.0399 C   0  0  0  0  0  0  0  0  0  0  0  0
   -5.5649    0.9451   18.3852 O   0  0  0  0  0  0  0  0  0  0  0  0
   -7.4665    0.8792   16.7524 O   0  0  0  0  0  0  0  0  0  0  0  0
   -6.0233    0.8038   17.0024 S   0  0  0  0  0  0  0  0  0  0  0  0
   -5.3049    2.2373   16.1479 C   0  0  0  0  0  0  0  0  0  0  0  0
   -4.0124    2.4091   16.0451 N   0  0  0  0  0  0  0  0  0  0  0  0
   -6.3055    3.4735   15.4208 S   0  0  0  0  0  0  0  0  0  0  0  0
   -2.2774    5.1623   14.3170 C   0  0  0  0  0  0  0  0  0  0  0  0
   -2.4221    3.9989   15.0717 C   0  0  0  0  0  0  0  0  0  0  0  0
   -3.2941    7.0602   13.1230 O   0  0  0  0  0  0  0  0  0  0  0  0
   -1.6383    8.4012   14.3808 C   0  0  0  0  0  0  0  0  0  0  0  0
  1  9  1  0
  2  3  1  0
  2 11  1  0
  2 14  2  0
  3  4  2  0
  3 12  1  0
  4  5  1  0
  5 13  2  0
  5 15  1  0
  6 15  1  0
  6 16  1  0
  7  9  2  0
  8  9  2  0
  9 10  1  0
 10 11  2  0
 10 12  1  0
 13 14  1  0
M  CHG  1   1  -1
M  END
$$$$
