2WNC_ligand
     RDKit          3D

 21 24  0  0  1  0  0  0  0  0999 V2000
  -99.4595  -60.5153  -56.8229 C   0  0  0  0  0  0  0  0  0  0  0  0
  -99.5116  -60.9037  -59.1683 O   0  0  0  0  0  0  0  0  0  0  0  0
  -92.4921  -60.0222  -59.2212 C   0  0  0  0  0  0  0  0  0  0  0  0
  -98.9246  -60.4588  -58.1803 C   0  0  0  0  0  0  0  0  0  0  0  0
  -98.8143  -60.1721  -55.6435 C   0  0  0  0  0  0  0  0  0  0  0  0
  -97.7320  -59.8192  -58.2048 O   0  0  0  0  0  0  0  0  0  0  0  0
  -94.9585  -60.9529  -57.4532 C   0  0  0  0  0  0  0  0  0  0  0  0
  -94.8115  -59.4521  -57.1642 C   0  0  0  0  0  0  0  0  0  0  0  0
  -94.0161  -59.8764  -59.4018 N   0  0  2  0  0  0  0  0  0  0  0  0
  -94.6746  -58.7834  -58.5423 C   0  0  1  0  0  0  0  0  0  0  0  0
  -96.0329  -58.4446  -59.2151 C   0  0  0  0  0  0  0  0  0  0  0  0
  -94.8474  -61.1015  -58.9861 C   0  0  2  0  0  0  0  0  0  0  0  0
  -96.1988  -60.9642  -59.7351 C   0  0  0  0  0  0  0  0  0  0  0  0
  -96.9869  -59.6583  -59.4105 C   0  0  1  0  0  0  0  0  0  0  0  0
 -103.0700  -61.7615  -55.0463 C   0  0  0  0  0  0  0  0  0  0  0  0
 -100.8411  -60.9190  -55.0142 C   0  0  0  0  0  0  0  0  0  0  0  0
 -100.7771  -60.9630  -56.4435 C   0  0  0  0  0  0  0  0  0  0  0  0
 -101.9083  -61.4166  -57.1471 C   0  0  0  0  0  0  0  0  0  0  0  0
 -103.0418  -61.8060  -56.4368 C   0  0  0  0  0  0  0  0  0  0  0  0
  -99.6329  -60.4229  -54.5733 N   0  0  0  0  0  0  0  0  0  0  0  0
 -101.9748  -61.3246  -54.3013 C   0  0  0  0  0  0  0  0  0  0  0  0
  1  4  1  0
  1  5  2  0
  1 17  1  0
  2  4  2  0
  9  3  1  1
  4  6  1  0
  5 20  1  0
 14  6  1  1
  7  8  1  0
 12  7  1  1
 10  8  1  1
  9 10  1  0
  9 12  1  0
 10 11  1  0
 11 14  1  0
 12 13  1  0
 13 14  1  0
 15 19  1  0
 15 21  2  0
 16 17  2  0
 16 20  1  0
 16 21  1  0
 17 18  1  0
 18 19  2  0
M  CHG  1   9   1
M  END
$$$$
