5SIS - prepared_ligand
     RDKit          3D

 58 61  0  0  1  0  0  0  0  0999 V2000
   28.1120  109.6124   56.5303 C   0  0  0  0  0  0  0  0  0  0  0  0
   29.3582  109.4514   58.6975 C   0  0  0  0  0  0  0  0  0  0  0  0
   30.6362  109.3268   59.2346 C   0  0  0  0  0  0  0  0  0  0  0  0
   27.7814  109.4799   53.9514 C   0  0  0  0  0  0  0  0  0  0  0  0
   36.8154  111.2064   58.5949 C   0  0  0  0  0  0  0  0  0  0  0  0
   34.2602  105.1579   61.8038 C   0  0  0  0  0  0  0  0  0  0  0  0
   36.3164  105.8025   60.6242 C   0  0  0  0  0  0  0  0  0  0  0  0
   28.3788  109.1662   52.7203 C   0  0  0  0  0  0  0  0  0  0  0  0
   26.4021  109.7035   54.0024 C   0  0  0  0  0  0  0  0  0  0  0  0
   33.8663  105.2790   63.2943 C   0  0  0  0  0  0  0  0  0  0  0  0
   35.4673  108.5714   60.7081 C   0  0  0  0  0  0  0  0  0  0  0  0
   35.2819  109.4082   59.5947 C   0  0  0  0  0  0  0  0  0  0  0  0
   30.3130  109.5082   56.4705 C   0  0  0  0  0  0  0  0  0  0  0  0
   29.9065  109.5522   55.1792 N   0  0  0  0  0  0  0  0  0  0  0  0
   34.2523  109.4257   58.5776 C   0  0  0  0  0  0  0  0  0  0  0  0
   29.2148  109.5309   57.3391 N   0  0  0  0  0  0  0  0  0  0  0  0
   34.6007  107.5424   61.2278 C   0  0  0  0  0  0  0  0  0  0  0  0
   28.5876  109.5635   55.2134 C   0  0  0  0  0  0  0  0  0  0  0  0
   31.6071  109.4291   57.0129 C   0  0  0  0  0  0  0  0  0  0  0  0
   36.4341  110.1771   59.5596 N   0  0  0  0  0  0  0  0  0  0  0  0
   37.2803  109.9134   60.5648 N   0  0  0  0  0  0  0  0  0  0  0  0
   36.7043  108.9535   61.2412 C   0  0  0  0  0  0  0  0  0  0  0  0
   31.7627  109.3405   58.4076 C   0  0  0  0  0  0  0  0  0  0  0  0
   33.0038  109.2664   59.0663 N   0  0  0  0  0  0  0  0  0  0  0  0
   35.0678  106.2616   61.2521 N   0  0  0  0  0  0  0  0  0  0  0  0
   34.5476  109.6074   57.3981 O   0  0  0  0  0  0  0  0  0  0  0  0
   33.4890  107.8703   61.6455 O   0  0  0  0  0  0  0  0  0  0  0  0
   35.0730  105.0199   64.2098 N   0  0  0  0  0  0  0  0  0  0  0  0
   35.9236  106.2635   64.5036 C   0  0  0  0  0  0  0  0  0  0  0  0
   25.6282  109.5867   52.8536 C   0  0  0  0  0  0  0  0  0  0  0  0
   27.6029  109.0447   51.5706 C   0  0  0  0  0  0  0  0  0  0  0  0
   26.2273  109.2413   51.6477 C   0  0  0  0  0  0  0  0  0  0  0  0
   27.1058  109.6292   56.9224 H   0  0  0  0  0  0  0  0  0  0  0  0
   28.4578  109.4580   59.2941 H   0  0  0  0  0  0  0  0  0  0  0  0
   30.7451  109.2341   60.3054 H   0  0  0  0  0  0  0  0  0  0  0  0
   37.6832  111.7697   58.9416 H   0  0  0  0  0  0  0  0  0  0  0  0
   37.0564  110.7358   57.6418 H   0  0  0  0  0  0  0  0  0  0  0  0
   35.9843  111.8980   58.4520 H   0  0  0  0  0  0  0  0  0  0  0  0
   33.3496  105.0861   61.2065 H   0  0  0  0  0  0  0  0  0  0  0  0
   34.7722  104.2059   61.6510 H   0  0  0  0  0  0  0  0  0  0  0  0
   36.8929  106.5898   60.1402 H   0  0  0  0  0  0  0  0  0  0  0  0
   36.9592  105.3296   61.3673 H   0  0  0  0  0  0  0  0  0  0  0  0
   36.0943  105.0594   59.8579 H   0  0  0  0  0  0  0  0  0  0  0  0
   29.4426  108.9945   52.6487 H   0  0  0  0  0  0  0  0  0  0  0  0
   25.9168  109.9640   54.9308 H   0  0  0  0  0  0  0  0  0  0  0  0
   33.1626  104.4975   63.5762 H   0  0  0  0  0  0  0  0  0  0  0  0
   33.4415  106.2371   63.5918 H   0  0  0  0  0  0  0  0  0  0  0  0
   32.4489  109.4122   56.3411 H   0  0  0  0  0  0  0  0  0  0  0  0
   37.1710  108.5268   62.1149 H   0  0  0  0  0  0  0  0  0  0  0  0
   32.9387  109.1332   60.0662 H   0  0  0  0  0  0  0  0  0  0  0  0
   35.6459  104.2888   63.8124 H   0  0  0  0  0  0  0  0  0  0  0  0
   34.7192  104.6733   65.0958 H   0  0  0  0  0  0  0  0  0  0  0  0
   36.6934  105.9447   65.2035 H   0  0  0  0  0  0  0  0  0  0  0  0
   36.3592  106.6065   63.5676 H   0  0  0  0  0  0  0  0  0  0  0  0
   35.2657  107.0120   64.9480 H   0  0  0  0  0  0  0  0  0  0  0  0
   24.5618  109.7477   52.9037 H   0  0  0  0  0  0  0  0  0  0  0  0
   28.0625  108.7924   50.6259 H   0  0  0  0  0  0  0  0  0  0  0  0
   25.6116  109.1255   50.7692 H   0  0  0  0  0  0  0  0  0  0  0  0
  1 16  1  0
  1 18  2  0
  1 33  1  0
  2  3  2  0
  2 16  1  0
  2 34  1  0
  3 23  1  0
  3 35  1  0
  4  8  2  0
  4  9  1  0
  4 18  1  0
  5 20  1  0
  5 36  1  0
  5 37  1  0
  5 38  1  0
  6 10  1  0
  6 25  1  0
  6 39  1  0
  6 40  1  0
  7 25  1  0
  7 41  1  0
  7 42  1  0
  7 43  1  0
  8 31  1  0
  8 44  1  0
  9 30  2  0
  9 45  1  0
 10 28  1  0
 10 46  1  0
 10 47  1  0
 11 12  2  0
 11 17  1  0
 11 22  1  0
 12 15  1  0
 12 20  1  0
 13 14  2  0
 13 16  1  0
 13 19  1  0
 14 18  1  0
 15 24  1  0
 15 26  2  0
 17 25  1  0
 17 27  2  0
 19 23  2  0
 19 48  1  0
 20 21  1  0
 21 22  2  0
 22 49  1  0
 23 24  1  0
 24 50  1  0
 28 29  1  0
 28 51  1  0
 28 52  1  0
 29 53  1  0
 29 54  1  0
 29 55  1  0
 30 32  1  0
 30 56  1  0
 31 32  2  0
 31 57  1  0
 32 58  1  0
M  CHG  1  28   1
M  END
$$$$
