3N86_ligand
     RDKit          3D

 23 24  0  0  1  0  0  0  0  0999 V2000
   24.9091   55.4679   98.5581 O   0  0  0  0  0  0  0  0  0  0  0  0
   18.1782   52.1804   97.4769 O   0  0  0  0  0  0  0  0  0  0  0  0
   17.1157   54.0725   97.1999 O   0  0  0  0  0  0  0  0  0  0  0  0
   19.4165   56.7700   93.5440 O   0  0  0  0  0  0  0  0  0  0  0  0
   22.0738   56.2315   94.2448 O   0  0  0  0  0  0  0  0  0  0  0  0
   19.2312   52.6106   94.9122 O   0  0  0  0  0  0  0  0  0  0  0  0
   22.9420   54.2081   98.0235 C   0  0  0  0  0  0  0  0  0  0  0  0
   22.7240   55.0033   96.7097 C   0  0  0  0  0  0  0  0  0  0  0  0
   20.4316   53.9363   96.4460 C   0  0  0  0  0  0  0  0  0  0  0  0
   25.6597   55.5610  103.8482 C   0  0  0  0  0  0  0  0  0  0  0  0
   26.0416   56.2181  102.6804 C   0  0  0  0  0  0  0  0  0  0  0  0
   24.6633   54.5914  103.8258 C   0  0  0  0  0  0  0  0  0  0  0  0
   25.4262   55.8986  101.4744 C   0  0  0  0  0  0  0  0  0  0  0  0
   24.0508   54.2644  102.6216 C   0  0  0  0  0  0  0  0  0  0  0  0
   18.6695   55.0040   95.0468 C   0  0  0  0  0  0  0  0  0  0  0  0
   23.7447   54.5066  100.2866 N   0  0  0  0  0  0  0  0  0  0  0  0
   23.9668   54.8052   98.9895 C   0  0  0  0  0  0  0  0  0  0  0  0
   18.0417   53.2865   96.9027 C   0  0  0  0  0  0  0  0  0  0  0  0
   21.3669   54.8150   96.0192 C   0  0  0  0  0  0  0  0  0  0  0  0
   24.4338   54.9067  101.4410 C   0  0  0  0  0  0  0  0  0  0  0  0
   19.7712   55.5233   94.1119 C   0  0  2  0  0  0  0  0  0  0  0  0
   21.1582   55.6145   94.7881 C   0  0  0  0  0  0  0  0  0  0  0  0
   19.0778   53.7026   95.8011 C   0  0  1  0  0  0  0  0  0  0  0  0
  1 17  2  0
  2 18  1  0
  3 18  2  0
 21  4  1  1
  5 22  2  0
 23  6  1  6
  7  8  1  0
  7 17  1  0
  8 19  1  0
  9 19  2  0
  9 23  1  0
 10 11  2  0
 10 12  1  0
 11 13  1  0
 12 14  2  0
 13 20  2  0
 14 20  1  0
 15 21  1  0
 15 23  1  0
 16 17  1  0
 16 20  1  0
 18 23  1  0
 19 22  1  0
 21 22  1  0
M  CHG  1   2  -1
M  END
$$$$
