4RFM_ligand
     RDKit          3D

 36 41  0  0  1  0  0  0  0  0999 V2000
   13.2617    3.0896    5.5258 C   0  0  0  0  0  0  0  0  0  0  0  0
   14.7184    2.9242    5.0595 C   0  0  1  0  0  0  0  0  0  0  0  0
   15.6944    3.8628    5.8080 C   0  0  0  0  0  0  0  0  0  0  0  0
   17.0775    3.2789    5.9075 C   0  0  0  0  0  0  0  0  0  0  0  0
   18.2082    3.9633    6.2234 N   0  0  0  0  0  0  0  0  0  0  0  0
   19.2984    3.2022    6.1974 N   0  0  0  0  0  0  0  0  0  0  0  0
   18.8854    1.9924    5.8599 C   0  0  0  0  0  0  0  0  0  0  0  0
   19.7591    0.8407    5.7275 C   0  0  0  0  0  0  0  0  0  0  0  0
   19.3903   -0.1740    5.1323 O   0  0  0  0  0  0  0  0  0  0  0  0
   20.9653    0.9931    6.3220 N   0  0  0  0  0  0  0  0  0  0  0  0
   22.0064    0.0840    6.3218 C   0  0  0  0  0  0  0  0  0  0  0  0
   22.1175   -1.2038    5.7682 C   0  0  0  0  0  0  0  0  0  0  0  0
   23.3165   -1.7197    5.9134 N   0  0  0  0  0  0  0  0  0  0  0  0
   23.9976   -0.8174    6.6383 N   0  0  0  0  0  0  0  0  0  0  0  0
   23.2453    0.2996    6.8933 C   0  0  0  0  0  0  0  0  0  0  0  0
   25.4314   -0.9756    6.9327 C   0  0  1  0  0  0  0  0  0  0  0  0
   25.8906   -2.4611    7.1200 C   0  0  1  0  0  0  0  0  0  0  0  0
   27.4138   -2.5973    7.3919 C   0  0  0  0  0  0  0  0  0  0  0  0
   27.9090   -4.0516    7.5309 C   0  0  0  0  0  0  0  0  0  0  0  0
   27.2970   -4.8172    8.7211 C   0  0  0  0  0  0  0  0  0  0  0  0
   25.7699   -4.9452    8.6171 C   0  0  0  0  0  0  0  0  0  0  0  0
   25.0002   -3.2245    8.6212 S   0  0  0  0  0  0  0  0  0  0  0  0
   25.4101   -2.5104    9.8349 O   0  0  0  0  0  0  0  0  0  0  0  0
   23.5701   -3.3676    8.3399 O   0  0  0  0  0  0  0  0  0  0  0  0
   26.2839   -0.2013    5.9176 C   0  0  0  0  0  0  0  0  0  0  0  0
   27.2525    0.7005    6.3740 C   0  0  0  0  0  0  0  0  0  0  0  0
   28.0239    1.4179    5.4639 C   0  0  0  0  0  0  0  0  0  0  0  0
   27.8264    1.2359    4.0969 C   0  0  0  0  0  0  0  0  0  0  0  0
   26.8673    0.3407    3.6318 C   0  0  0  0  0  0  0  0  0  0  0  0
   26.0984   -0.3805    4.5412 C   0  0  0  0  0  0  0  0  0  0  0  0
   17.4890    1.9982    5.6015 C   0  0  0  0  0  0  0  0  0  0  0  0
   16.5173    0.9461    5.1026 C   0  0  0  0  0  0  0  0  0  0  0  0
   15.1384    1.5132    4.6567 C   0  0  2  0  0  0  0  0  0  0  0  0
   14.9777    2.6120    3.6101 C   0  0  0  0  0  0  0  0  0  0  0  0
   16.0845    3.0411    3.0089 F   0  0  0  0  0  0  0  0  0  0  0  0
   13.9433    2.4956    2.7846 F   0  0  0  0  0  0  0  0  0  0  0  0
  2  1  1  6
  2  3  1  0
  2 33  1  0
  2 34  1  0
  3  4  1  0
  4  5  1  0
  4 31  2  0
  5  6  1  0
  6  7  2  0
  7  8  1  0
  7 31  1  0
  8  9  2  0
  8 10  1  0
 10 11  1  0
 11 12  1  0
 11 15  2  0
 12 13  2  0
 13 14  1  0
 14 15  1  0
 16 14  1  6
 16 17  1  0
 16 25  1  0
 17 18  1  1
 17 22  1  0
 18 19  1  0
 19 20  1  0
 20 21  1  0
 21 22  1  0
 22 23  2  0
 22 24  2  0
 25 26  2  0
 25 30  1  0
 26 27  1  0
 27 28  2  0
 28 29  1  0
 29 30  2  0
 31 32  1  0
 33 32  1  1
 33 34  1  0
 34 35  1  0
 34 36  1  0
M  END
$$$$
