7X5N - prepared_ligand
     RDKit          3D

 54 57  0  0  1  0  0  0  0  0999 V2000
   87.2607   88.9200   45.2572 C   0  0  0  0  0  0  0  0  0  0  0  0
   87.5654   87.5898   44.5819 C   0  0  0  0  0  0  0  0  0  0  0  0
   88.7999   86.9494   44.7261 C   0  0  0  0  0  0  0  0  0  0  0  0
   84.2521   85.6572   42.5000 C   0  0  0  0  0  0  0  0  0  0  0  0
   83.7409   85.4744   43.9491 C   0  0  0  0  0  0  0  0  0  0  0  0
   83.1734   85.1038   41.5375 C   0  0  0  0  0  0  0  0  0  0  0  0
   86.5951   87.0220   43.7602 C   0  0  0  0  0  0  0  0  0  0  0  0
   89.0811   85.7472   44.0655 C   0  0  0  0  0  0  0  0  0  0  0  0
   90.4313   85.1032   44.1721 C   0  0  0  0  0  0  0  0  0  0  0  0
   91.2489   85.3035   45.2958 C   0  0  0  0  0  0  0  0  0  0  0  0
   92.5074   84.7133   45.3812 C   0  0  0  0  0  0  0  0  0  0  0  0
   92.9680   83.9146   44.3405 C   0  0  0  0  0  0  0  0  0  0  0  0
   92.1771   83.7004   43.2180 C   0  0  0  0  0  0  0  0  0  0  0  0
   90.9198   84.2905   43.1389 C   0  0  0  0  0  0  0  0  0  0  0  0
   88.0615   85.1815   43.2846 C   0  0  0  0  0  0  0  0  0  0  0  0
   86.8035   85.7875   43.1302 C   0  0  0  0  0  0  0  0  0  0  0  0
   85.7206   85.1211   42.2323 C   0  0  1  0  0  0  0  0  0  0  0  0
   85.7620   83.5830   42.3721 C   0  0  0  0  0  0  0  0  0  0  0  0
   85.9012   82.6587   43.4323 C   0  0  0  0  0  0  0  0  0  0  0  0
   86.0397   82.9101   44.9167 C   0  0  0  0  0  0  0  0  0  0  0  0
   85.7208   82.7712   41.2579 C   0  0  0  0  0  0  0  0  0  0  0  0
   85.9573   84.4531   39.7580 C   0  0  0  0  0  0  0  0  0  0  0  0
   86.0520   85.3955   40.7350 C   0  0  0  0  0  0  0  0  0  0  0  0
   86.4749   86.7015   40.3717 C   0  0  0  0  0  0  0  0  0  0  0  0
   85.9436   81.4145   42.9923 N   0  0  0  0  0  0  0  0  0  0  0  0
   85.8180   81.4878   41.6694 N   0  0  0  0  0  0  0  0  0  0  0  0
   86.1512   84.6509   38.4185 N   0  0  0  0  0  0  0  0  0  0  0  0
   86.9025   87.7303   40.0836 N   0  0  0  0  0  0  0  0  0  0  0  0
   88.0787   89.2204   46.3687 O   0  0  0  0  0  0  0  0  0  0  0  0
   85.6849   83.1319   39.9390 O   0  0  0  0  0  0  0  0  0  0  0  0
   86.2318   88.9050   45.6178 H   0  0  0  0  0  0  0  0  0  0  0  0
   87.3214   89.7186   44.5179 H   0  0  0  0  0  0  0  0  0  0  0  0
   89.5623   87.4151   45.3314 H   0  0  0  0  0  0  0  0  0  0  0  0
   84.2529   86.7300   42.3048 H   0  0  0  0  0  0  0  0  0  0  0  0
   84.4137   85.8855   44.6991 H   0  0  0  0  0  0  0  0  0  0  0  0
   82.7816   85.9749   44.0869 H   0  0  0  0  0  0  0  0  0  0  0  0
   83.5885   84.4249   44.1939 H   0  0  0  0  0  0  0  0  0  0  0  0
   83.3671   85.3754   40.5002 H   0  0  0  0  0  0  0  0  0  0  0  0
   83.0951   84.0187   41.5851 H   0  0  0  0  0  0  0  0  0  0  0  0
   82.1943   85.5118   41.7865 H   0  0  0  0  0  0  0  0  0  0  0  0
   85.6685   87.5605   43.6396 H   0  0  0  0  0  0  0  0  0  0  0  0
   90.9138   85.9085   46.1245 H   0  0  0  0  0  0  0  0  0  0  0  0
   93.1237   84.8706   46.2532 H   0  0  0  0  0  0  0  0  0  0  0  0
   93.9431   83.4544   44.4070 H   0  0  0  0  0  0  0  0  0  0  0  0
   92.5343   83.0777   42.4126 H   0  0  0  0  0  0  0  0  0  0  0  0
   90.3307   84.1163   42.2550 H   0  0  0  0  0  0  0  0  0  0  0  0
   88.2470   84.2466   42.7780 H   0  0  0  0  0  0  0  0  0  0  0  0
   85.5286   82.1555   45.5144 H   0  0  0  0  0  0  0  0  0  0  0  0
   87.0855   82.9024   45.2225 H   0  0  0  0  0  0  0  0  0  0  0  0
   85.6327   83.8739   45.2131 H   0  0  0  0  0  0  0  0  0  0  0  0
   85.7988   80.6769   41.0711 H   0  0  0  0  0  0  0  0  0  0  0  0
   86.3957   83.8714   37.8201 H   0  0  0  0  0  0  0  0  0  0  0  0
   86.2748   85.5802   38.0393 H   0  0  0  0  0  0  0  0  0  0  0  0
   88.9865   89.2738   46.0572 H   0  0  0  0  0  0  0  0  0  0  0  0
  1  2  1  0
  1 29  1  0
  1 31  1  0
  1 32  1  0
  2  3  2  0
  2  7  1  0
  3  8  1  0
  3 33  1  0
  4  5  1  0
  4  6  1  0
 17  4  1  1
  4 34  1  0
  5 35  1  0
  5 36  1  0
  5 37  1  0
  6 38  1  0
  6 39  1  0
  6 40  1  0
  7 16  2  0
  7 41  1  0
  8  9  1  0
  8 15  2  0
  9 10  2  0
  9 14  1  0
 10 11  1  0
 10 42  1  0
 11 12  2  0
 11 43  1  0
 12 13  1  0
 12 44  1  0
 13 14  2  0
 13 45  1  0
 14 46  1  0
 15 16  1  0
 15 47  1  0
 16 17  1  0
 17 18  1  0
 17 23  1  0
 18 19  1  0
 18 21  2  0
 19 20  1  0
 19 25  2  0
 20 48  1  0
 20 49  1  0
 20 50  1  0
 21 26  1  0
 21 30  1  0
 22 23  2  0
 22 27  1  0
 22 30  1  0
 23 24  1  0
 24 28  3  0
 25 26  1  0
 26 51  1  0
 27 52  1  0
 27 53  1  0
 29 54  1  0
M  END
$$$$
