1H23_ligand
     RDKit          3D

 36 39  0  0  1  0  0  0  0  0999 V2000
    4.5404   59.5491   71.8275 C   0  0  0  0  0  0  0  0  0  0  0  0
    3.6840   58.4950   71.9193 N   0  0  0  0  0  0  0  0  0  0  0  0
    5.3787   59.6463   70.9343 O   0  0  0  0  0  0  0  0  0  0  0  0
    2.5302   59.2645   73.8775 C   0  0  0  0  0  0  0  0  0  0  0  0
    3.4200   60.4240   73.8343 C   0  0  0  0  0  0  0  0  0  0  0  0
    0.6059   57.0982   73.6073 C   0  0  0  0  0  0  0  0  0  0  0  0
    0.4319   60.1891   74.9558 N   0  0  0  0  0  0  0  0  0  0  0  0
   -0.4603   60.3031   73.7079 C   0  0  0  0  0  0  0  0  0  0  0  0
    4.3633   60.5431   72.8739 C   0  0  0  0  0  0  0  0  0  0  0  0
    1.9205   57.0404   72.8103 C   0  0  0  0  0  0  0  0  0  0  0  0
    1.5062   59.0799   75.0060 C   0  0  1  0  0  0  0  0  0  0  0  0
    0.8236   57.6848   75.0111 C   0  0  0  0  0  0  0  0  0  0  0  0
   -0.9953   61.7441   73.5992 C   0  0  0  0  0  0  0  0  0  0  0  0
    1.1463   68.4459   61.2900 C   0  0  0  0  0  0  0  0  0  0  0  0
    2.7142   58.3452   72.8865 C   0  0  0  0  0  0  0  0  0  0  0  0
    2.5043   68.4494   61.2418 N   0  0  0  0  0  0  0  0  0  0  0  0
    3.3296   68.5187   62.3405 C   0  0  0  0  0  0  0  0  0  0  0  0
    2.8533   68.5331   63.6183 C   0  0  0  0  0  0  0  0  0  0  0  0
    1.3981   68.4264   63.7363 C   0  0  0  0  0  0  0  0  0  0  0  0
    0.6097   68.3729   62.6383 C   0  0  0  0  0  0  0  0  0  0  0  0
    0.4587   68.5286   60.2739 O   0  0  0  0  0  0  0  0  0  0  0  0
    4.8170   68.5564   62.0063 C   0  0  0  0  0  0  0  0  0  0  0  0
    3.8020   68.6995   64.8194 C   0  0  2  0  0  0  0  0  0  0  0  0
    5.2406   68.2424   64.4937 C   0  0  0  0  0  0  0  0  0  0  0  0
    5.7169   68.9091   63.2031 C   0  0  0  0  0  0  0  0  0  0  0  0
    3.3158   68.0063   66.1067 N   0  0  0  0  0  0  0  0  0  0  0  0
    3.2755   66.4707   66.1250 C   0  0  0  0  0  0  0  0  0  0  0  0
   -0.6703   62.4014   72.2492 C   0  0  0  0  0  0  0  0  0  0  0  0
    0.8340   62.5992   71.9644 C   0  0  0  0  0  0  0  0  0  0  0  0
    1.1693   62.3416   70.4869 C   0  0  0  0  0  0  0  0  0  0  0  0
    2.6471   62.5213   70.1136 C   0  0  0  0  0  0  0  0  0  0  0  0
    3.1210   63.9804   70.1281 C   0  0  0  0  0  0  0  0  0  0  0  0
    4.5833   64.1130   69.6764 C   0  0  0  0  0  0  0  0  0  0  0  0
    5.0746   65.5610   69.4972 C   0  0  0  0  0  0  0  0  0  0  0  0
    4.2929   66.4018   68.4704 C   0  0  0  0  0  0  0  0  0  0  0  0
    4.3899   65.9037   67.0128 C   0  0  0  0  0  0  0  0  0  0  0  0
  1  2  1  0
  1  3  2  0
  1  9  1  0
  2 15  1  0
  4  5  1  0
  4 11  1  0
  4 15  2  0
  5  9  2  0
  6 10  1  0
  6 12  1  0
  7  8  1  0
 11  7  1  6
  8 13  1  0
 10 15  1  0
 11 12  1  0
 13 28  1  0
 14 16  1  0
 14 20  1  0
 14 21  2  0
 16 17  1  0
 17 18  2  0
 17 22  1  0
 18 19  1  0
 18 23  1  0
 19 20  2  0
 22 25  1  0
 23 24  1  0
 23 26  1  1
 24 25  1  0
 26 27  1  0
 27 36  1  0
 28 29  1  0
 29 30  1  0
 30 31  1  0
 31 32  1  0
 32 33  1  0
 33 34  1  0
 34 35  1  0
 35 36  1  0
M  CHG  2   7   1  26   1
M  END
$$$$
