7NXO - prepared_ligand2
     RDKit          3D

 49 52  0  0  1  0  0  0  0  0999 V2000
    6.9346    3.9519    8.3896 N   0  0  0  0  0  0  0  0  0  0  0  0
    7.4898    3.0890    7.4511 C   0  0  0  0  0  0  0  0  0  0  0  0
    8.3099    3.7486    6.4441 C   0  0  0  0  0  0  0  0  0  0  0  0
    8.4478    5.0912    6.4724 C   0  0  0  0  0  0  0  0  0  0  0  0
    7.8456    5.9081    7.4358 N   0  0  0  0  0  0  0  0  0  0  0  0
    7.0889    5.3441    8.3810 C   0  0  0  0  0  0  0  0  0  0  0  0
    6.6680    3.2242   10.7172 C   0  0  0  0  0  0  0  0  0  0  0  0
    5.9342    2.5425   11.6830 C   0  0  0  0  0  0  0  0  0  0  0  0
    4.1944    2.0749   10.0629 C   0  0  0  0  0  0  0  0  0  0  0  0
    1.6383    3.2353   10.6942 C   0  0  0  0  0  0  0  0  0  0  0  0
   -0.6905    2.7903   11.1351 C   0  0  0  0  0  0  0  0  0  0  0  0
    0.6801    1.1013   10.0706 C   0  0  0  0  0  0  0  0  0  0  0  0
    0.7898   -0.2964    9.4789 C   0  0  0  0  0  0  0  0  0  0  0  0
   -0.5550    1.5240   10.5712 C   0  0  0  0  0  0  0  0  0  0  0  0
    0.4056    3.6473   11.1889 C   0  0  0  0  0  0  0  0  0  0  0  0
    1.7952    1.9522   10.1469 C   0  0  0  0  0  0  0  0  0  0  0  0
    3.0077    1.4992    9.6641 O   0  0  0  0  0  0  0  0  0  0  0  0
    4.9239    2.7716    9.1017 C   0  0  0  0  0  0  0  0  0  0  0  0
    4.7082    1.9493   11.3665 C   0  0  0  0  0  0  0  0  0  0  0  0
    4.0015    1.1945   12.3952 C   0  0  0  0  0  0  0  0  0  0  0  0
    3.4382    0.5970   13.2108 N   0  0  0  0  0  0  0  0  0  0  0  0
    7.8651    3.7589   11.0540 F   0  0  0  0  0  0  0  0  0  0  0  0
    6.1654    3.3409    9.4134 C   0  0  0  0  0  0  0  0  0  0  0  0
    7.3306    1.8680    7.4257 O   0  0  0  0  0  0  0  0  0  0  0  0
    6.5133    5.9980    9.2546 O   0  0  0  0  0  0  0  0  0  0  0  0
    9.4968    5.9603    5.2856 S   0  0  0  0  0  0  0  0  0  0  0  0
   10.0615    4.9860    4.3435 O   0  0  0  0  0  0  0  0  0  0  0  0
    8.7776    7.1374    4.7866 O   0  0  0  0  0  0  0  0  0  0  0  0
   10.8442    6.5218    6.3149 C   0  0  0  0  0  0  0  0  0  0  0  0
   10.8407    7.8185    6.8255 C   0  0  0  0  0  0  0  0  0  0  0  0
   11.8557    8.2156    7.6872 C   0  0  0  0  0  0  0  0  0  0  0  0
   12.8748    7.3284    8.0165 C   0  0  0  0  0  0  0  0  0  0  0  0
   12.8908    6.0389    7.4970 C   0  0  0  0  0  0  0  0  0  0  0  0
   11.8713    5.6370    6.6419 C   0  0  0  0  0  0  0  0  0  0  0  0
    8.8080    3.1476    5.6990 H   0  0  0  0  0  0  0  0  0  0  0  0
    6.3451    2.4734   12.6764 H   0  0  0  0  0  0  0  0  0  0  0  0
    2.4739    3.9167   10.7508 H   0  0  0  0  0  0  0  0  0  0  0  0
   -1.6439    3.1055   11.5321 H   0  0  0  0  0  0  0  0  0  0  0  0
    1.8198   -0.6497    9.4248 H   0  0  0  0  0  0  0  0  0  0  0  0
    0.2486   -1.0107   10.1004 H   0  0  0  0  0  0  0  0  0  0  0  0
    0.3517   -0.3214    8.4807 H   0  0  0  0  0  0  0  0  0  0  0  0
   -1.4127    0.8679   10.5292 H   0  0  0  0  0  0  0  0  0  0  0  0
    0.3123    4.6276   11.6278 H   0  0  0  0  0  0  0  0  0  0  0  0
    4.5390    2.8328    8.0951 H   0  0  0  0  0  0  0  0  0  0  0  0
   10.0401    8.5013    6.5902 H   0  0  0  0  0  0  0  0  0  0  0  0
   11.8346    9.1997    8.1260 H   0  0  0  0  0  0  0  0  0  0  0  0
   13.6521    7.6438    8.6909 H   0  0  0  0  0  0  0  0  0  0  0  0
   13.6795    5.3529    7.7691 H   0  0  0  0  0  0  0  0  0  0  0  0
   11.8593    4.6302    6.2616 H   0  0  0  0  0  0  0  0  0  0  0  0
  1  2  1  0
  1  6  1  0
  1 23  1  0
  2  3  1  0
  2 24  2  0
  3  4  2  0
  3 35  1  0
  4  5  1  0
  4 26  1  0
  5  6  1  0
  6 25  2  0
  7  8  2  0
  7 22  1  0
  7 23  1  0
  8 19  1  0
  8 36  1  0
  9 17  1  0
  9 18  1  0
  9 19  2  0
 10 15  2  0
 10 16  1  0
 10 37  1  0
 11 14  2  0
 11 15  1  0
 11 38  1  0
 12 13  1  0
 12 14  1  0
 12 16  2  0
 13 39  1  0
 13 40  1  0
 13 41  1  0
 14 42  1  0
 15 43  1  0
 16 17  1  0
 18 23  2  0
 18 44  1  0
 19 20  1  0
 20 21  3  0
 26 27  2  0
 26 28  2  0
 26 29  1  0
 29 30  2  0
 29 34  1  0
 30 31  1  0
 30 45  1  0
 31 32  2  0
 31 46  1  0
 32 33  1  0
 32 47  1  0
 33 34  2  0
 33 48  1  0
 34 49  1  0
M  CHG  1   5  -1
M  END
$$$$
