8DW5 - prepared_ligand
     RDKit          3D

 26 27  0  0  1  0  0  0  0  0999 V2000
   23.5208   11.4328    2.2078 C   0  0  0  0  0  0  0  0  0  0  0  0
   23.3475   12.8043    2.1229 C   0  0  0  0  0  0  0  0  0  0  0  0
   22.3276   13.3210    1.3324 C   0  0  0  0  0  0  0  0  0  0  0  0
   20.7752   10.1584    0.0706 N   0  0  0  0  0  0  0  0  0  0  0  0
   20.5163   14.3681   -0.5587 O   0  0  0  0  0  0  0  0  0  0  0  0
   20.3765   13.1563   -0.2634 C   0  0  0  0  0  0  0  0  0  0  0  0
   19.3816   12.5076   -0.6605 O   0  0  0  0  0  0  0  0  0  0  0  0
   21.4362   12.4935    0.6114 C   0  0  0  0  0  0  0  0  0  0  0  0
   22.6553   10.5849    1.5314 C   0  0  0  0  0  0  0  0  0  0  0  0
   21.5907   11.0795    0.7610 C   0  0  0  0  0  0  0  0  0  0  0  0
   20.6785    8.7570    0.0872 C   0  0  0  0  0  0  0  0  0  0  0  0
   20.8228    7.9893    1.2503 C   0  0  0  0  0  0  0  0  0  0  0  0
   20.7474    6.5963    1.1912 C   0  0  0  0  0  0  0  0  0  0  0  0
   20.9210    5.6589    2.6300 Cl  0  0  0  0  0  0  0  0  0  0  0  0
   20.5321    5.9634   -0.0322 C   0  0  0  0  0  0  0  0  0  0  0  0
   20.3638    6.7229   -1.1895 C   0  0  0  0  0  0  0  0  0  0  0  0
   20.1136    5.9456   -2.7087 Cl  0  0  0  0  0  0  0  0  0  0  0  0
   20.4133    8.1152   -1.1232 C   0  0  0  0  0  0  0  0  0  0  0  0
   24.3193   11.0229    2.8074 H   0  0  0  0  0  0  0  0  0  0  0  0
   24.0124   13.4684    2.6552 H   0  0  0  0  0  0  0  0  0  0  0  0
   22.2488   14.3985    1.2879 H   0  0  0  0  0  0  0  0  0  0  0  0
   20.2859   10.5933   -0.7014 H   0  0  0  0  0  0  0  0  0  0  0  0
   22.8483    9.5274    1.6074 H   0  0  0  0  0  0  0  0  0  0  0  0
   20.9837    8.4640    2.2036 H   0  0  0  0  0  0  0  0  0  0  0  0
   20.4892    4.8849   -0.0819 H   0  0  0  0  0  0  0  0  0  0  0  0
   20.2857    8.6924   -2.0279 H   0  0  0  0  0  0  0  0  0  0  0  0
  1  2  2  0
  1  9  1  0
  1 19  1  0
  2  3  1  0
  2 20  1  0
  3  8  2  0
  3 21  1  0
  4 10  1  0
  4 11  1  0
  4 22  1  0
  5  6  1  0
  6  7  2  0
  6  8  1  0
  8 10  1  0
  9 10  2  0
  9 23  1  0
 11 12  2  0
 11 18  1  0
 12 13  1  0
 12 24  1  0
 13 14  1  0
 13 15  2  0
 15 16  1  0
 15 25  1  0
 16 17  1  0
 16 18  2  0
 18 26  1  0
M  CHG  1   5  -1
M  END
$$$$
