3P5O_ligand
     RDKit          3D

 30 33  0  0  1  0  0  0  0  0999 V2000
   30.2666   48.5234   -7.0716 Cl  0  0  0  0  0  0  0  0  0  0  0  0
   29.2964   49.1417   -5.7861 C   0  0  0  0  0  0  0  0  0  0  0  0
   29.5702   48.7723   -4.4737 C   0  0  0  0  0  0  0  0  0  0  0  0
   28.7731   49.2485   -3.4386 C   0  0  0  0  0  0  0  0  0  0  0  0
   28.2400   50.0008   -6.0676 C   0  0  0  0  0  0  0  0  0  0  0  0
   27.4434   50.4793   -5.0314 C   0  0  0  0  0  0  0  0  0  0  0  0
   27.6919   50.1030   -3.6987 C   0  0  0  0  0  0  0  0  0  0  0  0
   26.7961   50.5730   -2.6020 C   0  0  0  0  0  0  0  0  0  0  0  0
   25.5831   50.8605   -2.9144 N   0  0  0  0  0  0  0  0  0  0  0  0
   27.3539   50.6658   -1.2117 C   0  0  0  0  0  0  0  0  0  0  0  0
   26.6596   50.2394   -0.0459 C   0  0  0  0  0  0  0  0  0  0  0  0
   27.2546   50.3815    1.2125 C   0  0  0  0  0  0  0  0  0  0  0  0
   28.5252   50.9315    1.3373 C   0  0  0  0  0  0  0  0  0  0  0  0
   29.2262   51.3650    0.2099 C   0  0  0  0  0  0  0  0  0  0  0  0
   30.4803   51.9400    0.2416 O   0  0  0  0  0  0  0  0  0  0  0  0
   31.1539   52.0762    1.4871 C   0  0  0  0  0  0  0  0  0  0  0  0
   28.6281   51.2332   -1.0411 C   0  0  0  0  0  0  0  0  0  0  0  0
   25.3349   49.7356   -0.1098 N   0  0  0  0  0  0  0  0  0  0  0  0
   24.3323   50.2250   -0.9220 C   0  0  0  0  0  0  0  0  0  0  0  0
   23.2164   49.5581   -0.7522 N   0  0  0  0  0  0  0  0  0  0  0  0
   23.4759   48.5593    0.1766 N   0  0  0  0  0  0  0  0  0  0  0  0
   24.7287   48.6746    0.5401 C   0  0  0  0  0  0  0  0  0  0  0  0
   25.4060   47.7246    1.5071 C   0  0  0  0  0  0  0  0  0  0  0  0
   24.6371   51.3420   -1.9158 C   0  0  2  0  0  0  0  0  0  0  0  0
   23.3870   51.8779   -2.6569 C   0  0  0  0  0  0  0  0  0  0  0  0
   23.6439   53.1196   -3.5275 C   0  0  0  0  0  0  0  0  0  0  0  0
   24.3849   54.0165   -3.1224 O   0  0  0  0  0  0  0  0  0  0  0  0
   23.0221   53.1539   -4.7179 N   0  0  0  0  0  0  0  0  0  0  0  0
   23.1166   54.2384   -5.6929 C   0  0  0  0  0  0  0  0  0  0  0  0
   21.8603   55.1165   -5.7038 C   0  0  0  0  0  0  0  0  0  0  0  0
  1  2  1  0
  2  3  2  0
  2  5  1  0
  3  4  1  0
  4  7  2  0
  5  6  2  0
  6  7  1  0
  7  8  1  0
  8  9  2  0
  8 10  1  0
  9 24  1  0
 10 11  2  0
 10 17  1  0
 11 12  1  0
 11 18  1  0
 12 13  2  0
 13 14  1  0
 14 15  1  0
 14 17  2  0
 15 16  1  0
 18 19  1  0
 18 22  1  0
 19 20  2  0
 19 24  1  0
 20 21  1  0
 21 22  2  0
 22 23  1  0
 24 25  1  6
 25 26  1  0
 26 27  2  0
 26 28  1  0
 28 29  1  0
 29 30  1  0
M  END
$$$$
