2WTV_ligand
     RDKit          3D

 34 38  0  0  1  0  0  0  0  0999 V2000
   52.0014   30.5241   42.4009 C   0  0  0  0  0  0  0  0  0  0  0  0
   49.6371   30.5547   42.3258 C   0  0  0  0  0  0  0  0  0  0  0  0
   47.8654   28.9516   43.0535 C   0  0  0  0  0  0  0  0  0  0  0  0
   45.8452   28.6660   41.7610 C   0  0  0  0  0  0  0  0  0  0  0  0
   46.3313   29.5525   40.8027 C   0  0  0  0  0  0  0  0  0  0  0  0
   47.5829   30.1465   40.9667 C   0  0  0  0  0  0  0  0  0  0  0  0
   49.5171   32.0004   42.6780 C   0  0  0  0  0  0  0  0  0  0  0  0
   48.2600   33.7303   43.8657 C   0  0  0  0  0  0  0  0  0  0  0  0
   49.0421   34.7145   43.2819 C   0  0  0  0  0  0  0  0  0  0  0  0
   50.1664   40.1699   37.9047 O   0  0  0  0  0  0  0  0  0  0  0  0
   51.3202   39.8267   37.5476 C   0  0  0  0  0  0  0  0  0  0  0  0
   52.1352   40.6344   37.0429 O   0  0  0  0  0  0  0  0  0  0  0  0
   51.7608   38.3939   37.7685 C   0  0  0  0  0  0  0  0  0  0  0  0
   50.9461   37.4825   38.4608 C   0  0  0  0  0  0  0  0  0  0  0  0
   51.3662   36.1786   38.6980 C   0  0  0  0  0  0  0  0  0  0  0  0
   52.6256   35.7490   38.2671 C   0  0  0  0  0  0  0  0  0  0  0  0
   53.1387   34.4596   38.5037 N   0  0  0  0  0  0  0  0  0  0  0  0
   52.8274   33.4740   39.4515 C   0  0  0  0  0  0  0  0  0  0  0  0
   53.6318   32.3843   39.4745 N   0  0  0  0  0  0  0  0  0  0  0  0
   53.3597   31.4495   40.4209 C   0  0  0  0  0  0  0  0  0  0  0  0
   52.3069   31.5659   41.3328 C   0  0  0  0  0  0  0  0  0  0  0  0
   50.7192   29.8803   42.1845 N   0  0  0  0  0  0  0  0  0  0  0  0
   48.3559   29.8619   42.1047 C   0  0  0  0  0  0  0  0  0  0  0  0
   48.5844   28.6470   44.1564 F   0  0  0  0  0  0  0  0  0  0  0  0
   46.6155   28.3592   42.8799 C   0  0  0  0  0  0  0  0  0  0  0  0
   48.0266   31.0071   40.0204 F   0  0  0  0  0  0  0  0  0  0  0  0
   48.4924   32.3950   43.5566 C   0  0  0  0  0  0  0  0  0  0  0  0
   47.0184   34.1592   44.9842 Cl  0  0  0  0  0  0  0  0  0  0  0  0
   50.0744   34.3536   42.4280 C   0  0  0  0  0  0  0  0  0  0  0  0
   50.3452   33.0085   42.1222 C   0  0  0  0  0  0  0  0  0  0  0  0
   51.5137   32.7212   41.2254 C   0  0  0  0  0  0  0  0  0  0  0  0
   51.7899   33.6724   40.2943 N   0  0  0  0  0  0  0  0  0  0  0  0
   53.4268   36.6292   37.5425 C   0  0  0  0  0  0  0  0  0  0  0  0
   53.0014   37.9295   37.2927 C   0  0  0  0  0  0  0  0  0  0  0  0
  1 21  1  0
  1 22  1  0
  2  7  1  0
  2 22  2  0
  2 23  1  0
  3 23  2  0
  3 24  1  0
  3 25  1  0
  4  5  1  0
  4 25  2  0
  5  6  2  0
  6 23  1  0
  6 26  1  0
  7 27  1  0
  7 30  2  0
  8  9  1  0
  8 27  2  0
  8 28  1  0
  9 29  2  0
 10 11  2  0
 11 12  1  0
 11 13  1  0
 13 14  2  0
 13 34  1  0
 14 15  1  0
 15 16  2  0
 16 17  1  0
 16 33  1  0
 17 18  1  0
 18 19  2  0
 18 32  1  0
 19 20  1  0
 20 21  2  0
 21 31  1  0
 29 30  1  0
 30 31  1  0
 31 32  2  0
 33 34  2  0
M  CHG  1  12  -1
M  END
$$$$
