7V3S - prepared_ligand2
     RDKit          3D

 58 63  0  0  1  0  0  0  0  0999 V2000
  -10.7854  -23.6343   31.0737 N   0  0  0  0  0  0  0  0  0  0  0  0
   -9.8215  -13.9656   29.2744 N   0  0  0  0  0  0  0  0  0  0  0  0
   -9.1987  -25.4766   30.8765 C   0  0  0  0  0  0  0  0  0  0  0  0
   -9.4682  -24.1149   31.0114 C   0  0  0  0  0  0  0  0  0  0  0  0
   -8.4130  -23.1879   31.0474 C   0  0  0  0  0  0  0  0  0  0  0  0
  -11.0315  -22.2554   31.0646 C   0  0  0  0  0  0  0  0  0  0  0  0
   -9.9413  -21.3748   31.1312 C   0  0  0  0  0  0  0  0  0  0  0  0
  -11.5017  -19.5593   30.8882 C   0  0  0  0  0  0  0  0  0  0  0  0
   -9.1646  -17.5588   29.3538 C   0  0  0  0  0  0  0  0  0  0  0  0
   -9.5911  -15.2271   29.8266 C   0  0  0  0  0  0  0  0  0  0  0  0
   -9.4472  -16.8232   31.6404 C   0  0  0  0  0  0  0  0  0  0  0  0
   -9.1168  -10.3970   29.0720 C   0  0  0  0  0  0  0  0  0  0  0  0
  -10.5967  -11.7741   27.3900 C   0  0  0  0  0  0  0  0  0  0  0  0
  -10.5482  -10.2492   29.5163 C   0  0  0  0  0  0  0  0  0  0  0  0
  -11.9819  -11.4900   24.6711 C   0  0  0  0  0  0  0  0  0  0  0  0
  -11.3726  -10.9026   22.4212 C   0  0  0  0  0  0  0  0  0  0  0  0
  -10.0376  -10.1069   24.2605 C   0  0  0  0  0  0  0  0  0  0  0  0
   -7.0956  -23.6182   30.8999 C   0  0  0  0  0  0  0  0  0  0  0  0
  -10.1731  -19.9990   31.0448 C   0  0  0  0  0  0  0  0  0  0  0  0
   -9.2198  -17.8478   30.7182 C   0  0  0  0  0  0  0  0  0  0  0  0
   -9.3528  -16.2542   28.9100 C   0  0  0  0  0  0  0  0  0  0  0  0
   -9.6273  -15.5151   31.1975 C   0  0  0  0  0  0  0  0  0  0  0  0
   -9.8524  -12.7417   29.8386 C   0  0  0  0  0  0  0  0  0  0  0  0
  -10.1047  -11.5523   28.8626 C   0  0  0  0  0  0  0  0  0  0  0  0
   -6.8298  -24.9815   30.7541 C   0  0  0  0  0  0  0  0  0  0  0  0
  -10.8627  -10.7939   25.1505 C   0  0  0  0  0  0  0  0  0  0  0  0
  -12.2350  -11.5420   23.3059 C   0  0  0  0  0  0  0  0  0  0  0  0
  -10.2788  -10.1832   22.8931 C   0  0  0  0  0  0  0  0  0  0  0  0
   -7.8763  -25.9078   30.7501 C   0  0  0  0  0  0  0  0  0  0  0  0
  -12.5282  -20.5017   30.8288 C   0  0  0  0  0  0  0  0  0  0  0  0
   -9.5318  -17.0984   32.9615 F   0  0  0  0  0  0  0  0  0  0  0  0
  -11.6018  -10.9779   21.0942 F   0  0  0  0  0  0  0  0  0  0  0  0
  -12.3115  -21.8357   30.9354 N   0  0  0  0  0  0  0  0  0  0  0  0
  -10.5130  -10.7515   26.5102 N   0  0  0  0  0  0  0  0  0  0  0  0
   -8.6401  -21.8349   31.2172 O   0  0  0  0  0  0  0  0  0  0  0  0
   -9.0934  -19.1455   31.1419 O   0  0  0  0  0  0  0  0  0  0  0  0
   -9.6639  -12.5350   31.0390 O   0  0  0  0  0  0  0  0  0  0  0  0
  -11.0544  -12.8725   27.0652 O   0  0  0  0  0  0  0  0  0  0  0  0
  -11.5553  -24.2834   30.9918 H   0  0  0  0  0  0  0  0  0  0  0  0
   -9.9505  -13.9709   28.2723 H   0  0  0  0  0  0  0  0  0  0  0  0
  -10.0050  -26.1959   30.8485 H   0  0  0  0  0  0  0  0  0  0  0  0
  -11.7453  -18.5091   30.8217 H   0  0  0  0  0  0  0  0  0  0  0  0
   -8.9900  -18.3500   28.6403 H   0  0  0  0  0  0  0  0  0  0  0  0
   -8.3376  -10.4801   29.8312 H   0  0  0  0  0  0  0  0  0  0  0  0
   -8.7605   -9.8087   28.2255 H   0  0  0  0  0  0  0  0  0  0  0  0
  -11.1963   -9.5773   28.9618 H   0  0  0  0  0  0  0  0  0  0  0  0
  -10.7730  -10.2207   30.5838 H   0  0  0  0  0  0  0  0  0  0  0  0
  -12.6532  -12.0051   25.3383 H   0  0  0  0  0  0  0  0  0  0  0  0
   -9.1855   -9.5473   24.6179 H   0  0  0  0  0  0  0  0  0  0  0  0
   -6.2843  -22.9052   30.9135 H   0  0  0  0  0  0  0  0  0  0  0  0
   -9.3195  -16.0516   27.8483 H   0  0  0  0  0  0  0  0  0  0  0  0
   -9.8292  -14.7524   31.9299 H   0  0  0  0  0  0  0  0  0  0  0  0
   -5.8103  -25.3208   30.6460 H   0  0  0  0  0  0  0  0  0  0  0  0
  -13.0887  -12.0896   22.9393 H   0  0  0  0  0  0  0  0  0  0  0  0
   -9.6090   -9.6945   22.2034 H   0  0  0  0  0  0  0  0  0  0  0  0
   -7.6627  -26.9604   30.6351 H   0  0  0  0  0  0  0  0  0  0  0  0
  -13.5553  -20.1878   30.7178 H   0  0  0  0  0  0  0  0  0  0  0  0
  -10.0363   -9.9144   26.8155 H   0  0  0  0  0  0  0  0  0  0  0  0
  1  4  1  0
  1  6  1  0
  1 39  1  0
  2 10  1  0
  2 23  1  0
  2 40  1  0
  3  4  1  0
  3 29  2  0
  3 41  1  0
  4  5  2  0
  5 18  1  0
  5 35  1  0
  6  7  2  0
  6 33  1  0
  7 19  1  0
  7 35  1  0
  8 19  2  0
  8 30  1  0
  8 42  1  0
  9 20  2  0
  9 21  1  0
  9 43  1  0
 10 21  2  0
 10 22  1  0
 11 20  1  0
 11 22  2  0
 11 31  1  0
 12 14  1  0
 12 24  1  0
 12 44  1  0
 12 45  1  0
 13 24  1  0
 13 34  1  0
 13 38  2  0
 14 24  1  0
 14 46  1  0
 14 47  1  0
 15 26  2  0
 15 27  1  0
 15 48  1  0
 16 27  2  0
 16 28  1  0
 16 32  1  0
 17 26  1  0
 17 28  2  0
 17 49  1  0
 18 25  2  0
 18 50  1  0
 19 36  1  0
 20 36  1  0
 21 51  1  0
 22 52  1  0
 23 24  1  0
 23 37  2  0
 25 29  1  0
 25 53  1  0
 26 34  1  0
 27 54  1  0
 28 55  1  0
 29 56  1  0
 30 33  2  0
 30 57  1  0
 34 58  1  0
M  END
$$$$
