8BRO - prepared_ligand
     RDKit          3D

 49 51  0  0  1  0  0  0  0  0999 V2000
   30.1387    0.4231    9.8068 N   0  0  0  0  0  0  0  0  0  0  0  0
   27.6422    2.5186    7.0706 C   0  0  2  0  0  0  0  0  0  0  0  0
   27.6047    0.9769    7.2165 C   0  0  2  0  0  0  0  0  0  0  0  0
   26.1889    0.3778    7.1375 C   0  0  0  0  0  0  0  0  0  0  0  0
   30.4906   -0.8595   10.0279 C   0  0  0  0  0  0  0  0  0  0  0  0
   30.8436   -1.1717   11.3896 C   0  0  0  0  0  0  0  0  0  0  0  0
   31.4307   -2.1424   13.3137 C   0  0  0  0  0  0  0  0  0  0  0  0
   32.0965   -0.3531   15.8123 C   0  0  0  0  0  0  0  0  0  0  0  0
   31.5278    1.6313   17.0636 C   0  0  0  0  0  0  0  0  0  0  0  0
   30.6033    1.2815   14.8549 C   0  0  0  0  0  0  0  0  0  0  0  0
   29.5529    0.9267    8.5901 C   0  0  1  0  0  0  0  0  0  0  0  0
   28.1942    0.5855    8.4605 O   0  0  0  0  0  0  0  0  0  0  0  0
   29.0891    3.0243    7.2544 C   0  0  1  0  0  0  0  0  0  0  0  0
   29.1672    4.4399    7.2002 O   0  0  0  0  0  0  0  0  0  0  0  0
   29.7225    2.4618    8.5497 C   0  0  2  0  0  0  0  0  0  0  0  0
   31.0733    2.8766    8.6832 O   0  0  0  0  0  0  0  0  0  0  0  0
   26.7527    3.1576    7.9718 O   0  0  0  0  0  0  0  0  0  0  0  0
   30.4743   -1.7371    9.1633 O   0  0  0  0  0  0  0  0  0  0  0  0
   30.8171   -0.2101   12.3588 O   0  0  0  0  0  0  0  0  0  0  0  0
   31.1893   -0.7925   13.5345 C   0  0  0  0  0  0  0  0  0  0  0  0
   31.2105   -2.3828   11.9596 C   0  0  0  0  0  0  0  0  0  0  0  0
   31.2872    0.0655   14.7501 C   0  0  0  0  0  0  0  0  0  0  0  0
   30.7250    2.0600   16.0080 C   0  0  0  0  0  0  0  0  0  0  0  0
   32.2176    0.4196   16.9721 C   0  0  0  0  0  0  0  0  0  0  0  0
   33.1359   -0.0304   18.0965 C   0  0  0  0  0  0  0  0  0  0  0  0
   32.4868   -1.0455   19.0429 N   0  0  0  0  0  0  0  0  0  0  0  0
   30.1947    1.0665   10.5842 H   0  0  0  0  0  0  0  0  0  0  0  0
   27.2929    2.7903    6.0736 H   0  0  0  0  0  0  0  0  0  0  0  0
   28.1853    0.5339    6.4046 H   0  0  0  0  0  0  0  0  0  0  0  0
   26.2248   -0.7118    7.1573 H   0  0  0  0  0  0  0  0  0  0  0  0
   25.5670    0.6969    7.9749 H   0  0  0  0  0  0  0  0  0  0  0  0
   25.6867    0.6740    6.2164 H   0  0  0  0  0  0  0  0  0  0  0  0
   31.7348   -2.8714   14.0503 H   0  0  0  0  0  0  0  0  0  0  0  0
   32.6444   -1.2810   15.7343 H   0  0  0  0  0  0  0  0  0  0  0  0
   31.6166    2.2482   17.9464 H   0  0  0  0  0  0  0  0  0  0  0  0
   29.9773    1.6241   14.0436 H   0  0  0  0  0  0  0  0  0  0  0  0
   30.0887    0.3999    7.7937 H   0  0  0  0  0  0  0  0  0  0  0  0
   29.6824    2.6700    6.4095 H   0  0  0  0  0  0  0  0  0  0  0  0
   28.6238    4.7935    7.9096 H   0  0  0  0  0  0  0  0  0  0  0  0
   29.1903    2.8712    9.4112 H   0  0  0  0  0  0  0  0  0  0  0  0
   31.2064    3.6404    8.1142 H   0  0  0  0  0  0  0  0  0  0  0  0
   25.8508    3.0360    7.6520 H   0  0  0  0  0  0  0  0  0  0  0  0
   31.3061   -3.3313   11.4508 H   0  0  0  0  0  0  0  0  0  0  0  0
   30.2049    3.0022   16.0899 H   0  0  0  0  0  0  0  0  0  0  0  0
   33.4446    0.7922   18.7440 H   0  0  0  0  0  0  0  0  0  0  0  0
   34.0238   -0.5415   17.7195 H   0  0  0  0  0  0  0  0  0  0  0  0
   33.1598   -1.3451   19.7375 H   0  0  0  0  0  0  0  0  0  0  0  0
   31.6916   -0.6377   19.5117 H   0  0  0  0  0  0  0  0  0  0  0  0
   32.1892   -1.8597   18.5197 H   0  0  0  0  0  0  0  0  0  0  0  0
  1  5  1  0
  1 11  1  0
  1 27  1  0
  2  3  1  0
  2 13  1  0
  2 17  1  0
  2 28  1  6
  3  4  1  0
  3 12  1  0
  3 29  1  6
  4 30  1  0
  4 31  1  0
  4 32  1  0
  5  6  1  0
  5 18  2  0
  6 19  1  0
  6 21  2  0
  7 20  2  0
  7 21  1  0
  7 33  1  0
  8 22  2  0
  8 24  1  0
  8 34  1  0
  9 23  1  0
  9 24  2  0
  9 35  1  0
 10 22  1  0
 10 23  2  0
 10 36  1  0
 11 12  1  0
 11 15  1  0
 11 37  1  6
 13 14  1  0
 13 15  1  0
 13 38  1  6
 14 39  1  0
 15 16  1  0
 15 40  1  1
 16 41  1  0
 17 42  1  0
 19 20  1  0
 20 22  1  0
 21 43  1  0
 23 44  1  0
 24 25  1  0
 25 26  1  0
 25 45  1  0
 25 46  1  0
 26 47  1  0
 26 48  1  0
 26 49  1  0
M  CHG  1  26   1
M  END
$$$$
