8HO0 - prepared_ligand
     RDKit          3D

 38 41  0  0  1  0  0  0  0  0999 V2000
    4.8240   30.2839   -6.5791 C   0  0  1  0  0  0  0  0  0  0  0  0
    2.2326   30.3496  -10.2502 C   0  0  0  0  0  0  0  0  0  0  0  0
    3.2074   28.3439   -9.2755 C   0  0  0  0  0  0  0  0  0  0  0  0
    3.2415   29.7353   -9.4520 C   0  0  0  0  0  0  0  0  0  0  0  0
    7.2350   30.0035   -6.0739 O   0  0  0  0  0  0  0  0  0  0  0  0
    6.7930   30.2455   -3.3233 C   0  0  0  0  0  0  0  0  0  0  0  0
    3.5441   31.4178   -4.7635 C   0  0  0  0  0  0  0  0  0  0  0  0
    5.2711   30.5999   -8.0267 C   0  0  0  0  0  0  0  0  0  0  0  0
    4.1007   30.7745   -8.9632 C   0  0  0  0  0  0  0  0  0  0  0  0
    1.2082   29.6159  -10.8508 C   0  0  0  0  0  0  0  0  0  0  0  0
    1.1978   28.2399  -10.6292 C   0  0  0  0  0  0  0  0  0  0  0  0
    2.1760   27.6152   -9.8598 C   0  0  0  0  0  0  0  0  0  0  0  0
    6.0788   30.1376   -5.6640 C   0  0  0  0  0  0  0  0  0  0  0  0
    4.4424   30.6197   -3.7962 C   0  0  2  0  0  0  0  0  0  0  0  0
    4.8520   31.4039   -2.5459 C   0  0  0  0  0  0  0  0  0  0  0  0
    6.0624   30.6335   -2.0424 C   0  0  0  0  0  0  0  0  0  0  0  0
    3.6057   31.9523   -9.4866 C   0  0  0  0  0  0  0  0  0  0  0  0
    0.2681   30.2116  -11.6175 F   0  0  0  0  0  0  0  0  0  0  0  0
    5.7529   30.2344   -4.3534 N   0  0  0  0  0  0  0  0  0  0  0  0
    3.8020   31.2280   -6.0689 N   0  0  0  0  0  0  0  0  0  0  0  0
    2.5057   31.6967  -10.2583 N   0  0  0  0  0  0  0  0  0  0  0  0
    2.6564   32.1502   -4.3313 O   0  0  0  0  0  0  0  0  0  0  0  0
    4.3539   29.2990   -6.5886 H   0  0  0  0  0  0  0  0  0  0  0  0
    3.9549   27.8447   -8.6768 H   0  0  0  0  0  0  0  0  0  0  0  0
    7.2967   29.2825   -3.2337 H   0  0  0  0  0  0  0  0  0  0  0  0
    7.5428   30.9984   -3.5700 H   0  0  0  0  0  0  0  0  0  0  0  0
    5.9374   29.8245   -8.4100 H   0  0  0  0  0  0  0  0  0  0  0  0
    5.8522   31.5175   -8.0206 H   0  0  0  0  0  0  0  0  0  0  0  0
    0.4203   27.6426  -11.0820 H   0  0  0  0  0  0  0  0  0  0  0  0
    2.1359   26.5483   -9.7060 H   0  0  0  0  0  0  0  0  0  0  0  0
    3.9222   29.7033   -3.5186 H   0  0  0  0  0  0  0  0  0  0  0  0
    4.0575   31.4771   -1.8085 H   0  0  0  0  0  0  0  0  0  0  0  0
    5.1353   32.4210   -2.8167 H   0  0  0  0  0  0  0  0  0  0  0  0
    6.6830   31.1945   -1.3487 H   0  0  0  0  0  0  0  0  0  0  0  0
    5.7200   29.7341   -1.5315 H   0  0  0  0  0  0  0  0  0  0  0  0
    3.9420   32.9709   -9.3596 H   0  0  0  0  0  0  0  0  0  0  0  0
    3.2733   31.7718   -6.7374 H   0  0  0  0  0  0  0  0  0  0  0  0
    1.9788   32.4276  -10.7241 H   0  0  0  0  0  0  0  0  0  0  0  0
  1  8  1  0
  1 13  1  0
  1 20  1  0
  1 23  1  6
  2  4  1  0
  2 10  2  0
  2 21  1  0
  3  4  2  0
  3 12  1  0
  3 24  1  0
  4  9  1  0
  5 13  2  0
  6 16  1  0
  6 19  1  0
  6 25  1  0
  6 26  1  0
  7 14  1  0
  7 20  1  0
  7 22  2  0
  8  9  1  0
  8 27  1  0
  8 28  1  0
  9 17  2  0
 10 11  1  0
 10 18  1  0
 11 12  2  0
 11 29  1  0
 12 30  1  0
 13 19  1  0
 14 15  1  0
 14 19  1  0
 14 31  1  1
 15 16  1  0
 15 32  1  0
 15 33  1  0
 16 34  1  0
 16 35  1  0
 17 21  1  0
 17 36  1  0
 20 37  1  0
 21 38  1  0
M  END
$$$$
