3R88_ligand
     RDKit          3D

 14 14  0  0  1  0  0  0  0  0999 V2000
   -8.1920  -29.4930    5.7072 C   0  0  0  0  0  0  0  0  0  0  0  0
   -4.7871  -32.0373    9.1919 C   0  0  0  0  0  0  0  0  0  0  0  0
   -3.5542  -28.1409    4.1880 N   0  0  0  0  0  0  0  0  0  0  0  0
   -0.9653  -29.4436    7.1024 O   0  0  0  0  0  0  0  0  0  0  0  0
   -1.0252  -29.4593    4.8988 O   0  0  0  0  0  0  0  0  0  0  0  0
   -5.3595  -29.2146    5.3029 C   0  0  0  0  0  0  0  0  0  0  0  0
   -3.6503  -30.5016    7.0606 C   0  0  0  0  0  0  0  0  0  0  0  0
   -7.2574  -30.2281    6.4909 O   0  0  0  0  0  0  0  0  0  0  0  0
   -5.6125  -31.4238    8.2080 O   0  0  0  0  0  0  0  0  0  0  0  0
   -1.5895  -29.5103    6.0161 C   0  0  0  0  0  0  0  0  0  0  0  0
   -3.9822  -29.0150    5.1919 C   0  0  0  0  0  0  0  0  0  0  0  0
   -5.8998  -30.0274    6.3102 C   0  0  0  0  0  0  0  0  0  0  0  0
   -5.0356  -30.6655    7.2052 C   0  0  0  0  0  0  0  0  0  0  0  0
   -3.0919  -29.6720    6.0726 C   0  0  0  0  0  0  0  0  0  0  0  0
  1  8  1  0
  2  9  1  0
  3 11  1  0
  4 10  1  0
  5 10  2  0
  6 11  2  0
  6 12  1  0
  7 13  1  0
  7 14  2  0
  8 12  1  0
  9 13  1  0
 10 14  1  0
 11 14  1  0
 12 13  2  0
M  CHG  1   4  -1
M  END
$$$$
