2XBV_ligand
     RDKit          3D

 36 39  0  0  1  0  0  0  0  0999 V2000
   10.4375   66.8224    4.1175 C   0  0  2  0  0  0  0  0  0  0  0  0
    9.5024   66.3791    2.9663 C   0  0  2  0  0  0  0  0  0  0  0  0
    8.6893   67.6390    2.6594 C   0  0  0  0  0  0  0  0  0  0  0  0
    9.7017   68.6834    2.7465 N   0  0  0  0  0  0  0  0  0  0  0  0
   10.4825   68.3514    3.9361 C   0  0  0  0  0  0  0  0  0  0  0  0
   11.8492   66.1847    4.0849 C   0  0  0  0  0  0  0  0  0  0  0  0
    8.6387   65.1447    3.2860 C   0  0  0  0  0  0  0  0  0  0  0  0
    9.0917   63.9669    2.8073 N   0  0  0  0  0  0  0  0  0  0  0  0
    7.5555   65.2835    3.8580 O   0  0  0  0  0  0  0  0  0  0  0  0
   12.3531   65.8004    3.0267 O   0  0  0  0  0  0  0  0  0  0  0  0
   12.3965   65.9901    5.3038 N   0  0  0  0  0  0  0  0  0  0  0  0
   13.5391   65.2565    5.6595 C   0  0  0  0  0  0  0  0  0  0  0  0
   14.1786   64.4394    4.7735 N   0  0  0  0  0  0  0  0  0  0  0  0
   15.5824   63.6349    6.5689 C   0  0  0  0  0  0  0  0  0  0  0  0
   14.9550   64.5065    7.4578 C   0  0  0  0  0  0  0  0  0  0  0  0
   15.1780   63.6450    5.2354 C   0  0  0  0  0  0  0  0  0  0  0  0
   13.9177   65.3228    7.0045 C   0  0  0  0  0  0  0  0  0  0  0  0
   16.8004   62.5400    7.1118 Cl  0  0  0  0  0  0  0  0  0  0  0  0
    8.4773   62.7082    2.9289 C   0  0  0  0  0  0  0  0  0  0  0  0
    7.7656   62.3057    4.0720 C   0  0  0  0  0  0  0  0  0  0  0  0
    7.2758   60.1710    3.0350 C   0  0  0  0  0  0  0  0  0  0  0  0
    8.0020   60.5686    1.9084 C   0  0  0  0  0  0  0  0  0  0  0  0
    7.1733   61.0413    4.1270 C   0  0  0  0  0  0  0  0  0  0  0  0
    8.5966   61.8238    1.8507 C   0  0  0  0  0  0  0  0  0  0  0  0
    6.6593   58.9020    3.0567 N   0  0  0  0  0  0  0  0  0  0  0  0
    7.1221   57.9662    3.9599 C   0  0  0  0  0  0  0  0  0  0  0  0
    5.5929   56.3310    3.1534 C   0  0  0  0  0  0  0  0  0  0  0  0
    5.1253   57.2383    2.2648 C   0  0  0  0  0  0  0  0  0  0  0  0
    6.6658   56.7036    4.0565 C   0  0  0  0  0  0  0  0  0  0  0  0
    5.6388   58.6056    2.1698 C   0  0  0  0  0  0  0  0  0  0  0  0
    5.1628   59.3973    1.3535 O   0  0  0  0  0  0  0  0  0  0  0  0
    9.2702   62.1743    0.7317 F   0  0  0  0  0  0  0  0  0  0  0  0
    9.1060   70.0218    2.7949 C   0  0  0  0  0  0  0  0  0  0  0  0
   10.1417   71.1568    2.7308 C   0  0  0  0  0  0  0  0  0  0  0  0
   10.9796   71.1930    3.7668 F   0  0  0  0  0  0  0  0  0  0  0  0
   10.8518   71.1438    1.6081 F   0  0  0  0  0  0  0  0  0  0  0  0
  1  2  1  0
  1  5  1  0
  1  6  1  6
  2  3  1  0
  2  7  1  1
  3  4  1  0
  4  5  1  0
  4 33  1  0
  6 10  2  0
  6 11  1  0
  7  8  1  0
  7  9  2  0
  8 19  1  0
 11 12  1  0
 12 13  2  0
 12 17  1  0
 13 16  1  0
 14 15  1  0
 14 16  2  0
 14 18  1  0
 15 17  2  0
 19 20  2  0
 19 24  1  0
 20 23  1  0
 21 22  1  0
 21 23  2  0
 21 25  1  0
 22 24  2  0
 24 32  1  0
 25 26  1  0
 25 30  1  0
 26 29  2  0
 27 28  2  0
 27 29  1  0
 28 30  1  0
 30 31  2  0
 33 34  1  0
 34 35  1  0
 34 36  1  0
M  END
$$$$
