8HFN - prepared_ligand
     RDKit          3D

 40 41  0  0  1  0  0  0  0  0999 V2000
   71.9835   -2.3822    0.4074 C   0  0  0  0  0  0  0  0  0  0  0  0
   68.7066    0.2074   -4.7747 C   0  0  0  0  0  0  0  0  0  0  0  0
   68.1777    0.2239   -6.0661 C   0  0  0  0  0  0  0  0  0  0  0  0
   67.4002    1.3232   -6.4635 C   0  0  0  0  0  0  0  0  0  0  0  0
   67.6720    2.3199   -4.3761 C   0  0  0  0  0  0  0  0  0  0  0  0
   70.7068    0.6841   -0.8753 C   0  0  0  0  0  0  0  0  0  0  0  0
   68.9732    1.2617   -2.4923 C   0  0  0  0  0  0  0  0  0  0  0  0
   68.2132    1.7919   -1.4432 C   0  0  0  0  0  0  0  0  0  0  0  0
   69.9246    1.2184    0.1550 C   0  0  0  0  0  0  0  0  0  0  0  0
   68.6806    1.7745   -0.1312 C   0  0  0  0  0  0  0  0  0  0  0  0
   71.9962   -3.3284    1.6444 C   0  0  2  0  0  0  0  0  0  0  0  0
   68.4530    1.2633   -3.8895 C   0  0  0  0  0  0  0  0  0  0  0  0
   66.9272    0.4149   -8.6460 C   0  0  0  0  0  0  0  0  0  0  0  0
   70.6098   -3.5651    2.2839 C   0  0  0  0  0  0  0  0  0  0  0  0
   70.2270    0.7191   -2.1878 C   0  0  0  0  0  0  0  0  0  0  0  0
   71.9065   -1.0777    0.5808 N   0  0  0  0  0  0  0  0  0  0  0  0
   67.1627    2.3673   -5.6308 N   0  0  0  0  0  0  0  0  0  0  0  0
   73.0178   -2.7993    2.6072 N   0  0  0  0  0  0  0  0  0  0  0  0
   72.0930   -2.9656   -0.6731 O   0  0  0  0  0  0  0  0  0  0  0  0
   66.7944    1.4645   -7.6951 O   0  0  0  0  0  0  0  0  0  0  0  0
   72.8031   -0.5835   -1.7938 O   0  0  0  0  0  0  0  0  0  0  0  0
   73.0942    1.0841    0.0312 O   0  0  0  0  0  0  0  0  0  0  0  0
   70.6486   -4.4401    3.9017 S   0  0  0  0  0  0  0  0  0  0  0  0
   72.3179   -0.0305   -0.5208 S   0  0  0  0  0  0  0  0  0  0  0  0
   69.2951   -0.6420   -4.4604 H   0  0  0  0  0  0  0  0  0  0  0  0
   68.3720   -0.6086   -6.7252 H   0  0  0  0  0  0  0  0  0  0  0  0
   67.4372    3.1640   -3.7498 H   0  0  0  0  0  0  0  0  0  0  0  0
   67.2408    2.2051   -1.6424 H   0  0  0  0  0  0  0  0  0  0  0  0
   70.2805    1.2027    1.1745 H   0  0  0  0  0  0  0  0  0  0  0  0
   68.0709    2.1836    0.6608 H   0  0  0  0  0  0  0  0  0  0  0  0
   72.4362   -4.2859    1.3655 H   0  0  0  0  0  0  0  0  0  0  0  0
   66.3350    0.6483   -9.5293 H   0  0  0  0  0  0  0  0  0  0  0  0
   67.9637    0.2978   -8.9632 H   0  0  0  0  0  0  0  0  0  0  0  0
   66.5639   -0.5355   -8.2529 H   0  0  0  0  0  0  0  0  0  0  0  0
   69.9915   -4.1184    1.5789 H   0  0  0  0  0  0  0  0  0  0  0  0
   70.0928   -2.6127    2.4033 H   0  0  0  0  0  0  0  0  0  0  0  0
   70.8284    0.3031   -2.9775 H   0  0  0  0  0  0  0  0  0  0  0  0
   73.0739   -3.4231    3.4019 H   0  0  0  0  0  0  0  0  0  0  0  0
   73.9153   -2.7304    2.1435 H   0  0  0  0  0  0  0  0  0  0  0  0
   72.7084   -1.8887    2.9184 H   0  0  0  0  0  0  0  0  0  0  0  0
  1 11  1  0
  1 16  1  0
  1 19  2  0
  2  3  2  0
  2 12  1  0
  2 25  1  0
  3  4  1  0
  3 26  1  0
  4 17  2  0
  4 20  1  0
  5 12  2  0
  5 17  1  0
  5 27  1  0
  6  9  2  0
  6 15  1  0
  6 24  1  0
  7  8  1  0
  7 12  1  0
  7 15  2  0
  8 10  2  0
  8 28  1  0
  9 10  1  0
  9 29  1  0
 10 30  1  0
 11 14  1  0
 11 18  1  0
 11 31  1  6
 13 20  1  0
 13 32  1  0
 13 33  1  0
 13 34  1  0
 14 23  1  0
 14 35  1  0
 14 36  1  0
 15 37  1  0
 16 24  1  0
 18 38  1  0
 18 39  1  0
 18 40  1  0
 21 24  2  0
 22 24  2  0
M  CHG  3  16  -1  18   1  23  -1
M  END
$$$$
