7QK0 - prepared_ligand
     RDKit          3D

 67 72  0  0  1  0  0  0  0  0999 V2000
  -23.0208   13.3874   21.4818 C   0  0  0  0  0  0  0  0  0  0  0  0
  -23.1671   14.2839   19.0865 C   0  0  2  0  0  0  0  0  0  0  0  0
  -23.6101   15.4780   18.2164 C   0  0  0  0  0  0  0  0  0  0  0  0
  -22.5901   16.4733   17.7253 C   0  0  0  0  0  0  0  0  0  0  0  0
  -23.2501   15.5127   16.7521 C   0  0  0  0  0  0  0  0  0  0  0  0
  -23.5126   11.8000   19.0745 C   0  0  0  0  0  0  0  0  0  0  0  0
  -23.2607    7.0085   12.9828 C   0  0  0  0  0  0  0  0  0  0  0  0
  -23.8433    5.5921   13.2198 C   0  0  1  0  0  0  0  0  0  0  0  0
  -23.9941    4.8191   11.8864 C   0  0  0  0  0  0  0  0  0  0  0  0
  -24.6261    5.6859   10.7700 C   0  0  1  0  0  0  0  0  0  0  0  0
  -22.5647   11.5227   20.0157 C   0  0  0  0  0  0  0  0  0  0  0  0
  -21.9281   10.2207   20.1963 C   0  0  0  0  0  0  0  0  0  0  0  0
  -20.9905   10.0597   20.9832 O   0  0  0  0  0  0  0  0  0  0  0  0
  -22.1265   12.4118   20.9528 O   0  0  0  0  0  0  0  0  0  0  0  0
  -23.9582   13.0860   18.7968 N   0  0  0  0  0  0  0  0  0  0  0  0
  -23.1234   14.6381   20.5974 C   0  0  0  0  0  0  0  0  0  0  0  0
  -24.2011   15.3302   20.9734 F   0  0  0  0  0  0  0  0  0  0  0  0
  -22.0748   15.4296   20.8314 F   0  0  0  0  0  0  0  0  0  0  0  0
  -22.4556    9.2254   19.4180 N   0  0  0  0  0  0  0  0  0  0  0  0
  -21.9066    7.8670   19.5990 C   0  0  0  0  0  0  0  0  0  0  0  0
  -23.4756    9.3984   18.4342 C   0  0  0  0  0  0  0  0  0  0  0  0
  -23.9421    8.3340   17.6466 C   0  0  0  0  0  0  0  0  0  0  0  0
  -24.9172    8.5365   16.6765 C   0  0  0  0  0  0  0  0  0  0  0  0
  -25.4559    9.8084   16.4736 C   0  0  0  0  0  0  0  0  0  0  0  0
  -25.0418   10.8613   17.2861 C   0  0  0  0  0  0  0  0  0  0  0  0
  -24.0296   10.6814   18.2404 C   0  0  0  0  0  0  0  0  0  0  0  0
  -26.3727   10.0712   15.4444 N   0  0  0  0  0  0  0  0  0  0  0  0
  -26.3563    9.6140   14.1161 C   0  0  0  0  0  0  0  0  0  0  0  0
  -27.3687    9.9735   13.2136 C   0  0  0  0  0  0  0  0  0  0  0  0
  -28.7525   10.9050   13.6725 Cl  0  0  0  0  0  0  0  0  0  0  0  0
  -27.2211    9.5474   11.8910 C   0  0  0  0  0  0  0  0  0  0  0  0
  -26.1564    8.8146   11.4722 N   0  0  0  0  0  0  0  0  0  0  0  0
  -25.2328    8.4779   12.4145 C   0  0  0  0  0  0  0  0  0  0  0  0
  -25.2970    8.8635   13.7142 N   0  0  0  0  0  0  0  0  0  0  0  0
  -24.1085    7.7472   12.0267 N   0  0  0  0  0  0  0  0  0  0  0  0
  -23.9572    7.0795   10.7246 C   0  0  0  0  0  0  0  0  0  0  0  0
  -24.6853    4.9930    9.4007 C   0  0  0  0  0  0  0  0  0  0  0  0
  -23.0548    4.8593   14.1345 O   0  0  0  0  0  0  0  0  0  0  0  0
  -22.6891   13.6666   22.4801 H   0  0  0  0  0  0  0  0  0  0  0  0
  -24.0036   12.9417   21.6326 H   0  0  0  0  0  0  0  0  0  0  0  0
  -22.1470   14.0320   18.7887 H   0  0  0  0  0  0  0  0  0  0  0  0
  -24.5917   15.8649   18.4939 H   0  0  0  0  0  0  0  0  0  0  0  0
  -21.5434   16.3258   17.9938 H   0  0  0  0  0  0  0  0  0  0  0  0
  -22.8680   17.5274   17.7054 H   0  0  0  0  0  0  0  0  0  0  0  0
  -23.9942   15.8903   16.0503 H   0  0  0  0  0  0  0  0  0  0  0  0
  -22.6689   14.6890   16.3366 H   0  0  0  0  0  0  0  0  0  0  0  0
  -22.2476    6.9313   12.5831 H   0  0  0  0  0  0  0  0  0  0  0  0
  -23.1522    7.5531   13.9214 H   0  0  0  0  0  0  0  0  0  0  0  0
  -24.8321    5.6837   13.6706 H   0  0  0  0  0  0  0  0  0  0  0  0
  -24.5624    3.8980   12.0214 H   0  0  0  0  0  0  0  0  0  0  0  0
  -23.0040    4.4985   11.5575 H   0  0  0  0  0  0  0  0  0  0  0  0
  -25.6476    5.8665   11.1041 H   0  0  0  0  0  0  0  0  0  0  0  0
  -24.4989   13.1762   17.9473 H   0  0  0  0  0  0  0  0  0  0  0  0
  -22.7096    7.1725   19.8456 H   0  0  0  0  0  0  0  0  0  0  0  0
  -21.4281    7.5230   18.6814 H   0  0  0  0  0  0  0  0  0  0  0  0
  -21.1700    7.7807   20.3975 H   0  0  0  0  0  0  0  0  0  0  0  0
  -23.5520    7.3356   17.7596 H   0  0  0  0  0  0  0  0  0  0  0  0
  -25.2435    7.6977   16.0788 H   0  0  0  0  0  0  0  0  0  0  0  0
  -25.4697   11.8368   17.1230 H   0  0  0  0  0  0  0  0  0  0  0  0
  -27.0450   10.7996   15.6399 H   0  0  0  0  0  0  0  0  0  0  0  0
  -27.9597    9.7949   11.1424 H   0  0  0  0  0  0  0  0  0  0  0  0
  -24.4059    7.6927    9.9422 H   0  0  0  0  0  0  0  0  0  0  0  0
  -22.9105    6.9964   10.4263 H   0  0  0  0  0  0  0  0  0  0  0  0
  -25.1969    5.6127    8.6638 H   0  0  0  0  0  0  0  0  0  0  0  0
  -23.6853    4.7832    9.0199 H   0  0  0  0  0  0  0  0  0  0  0  0
  -25.2228    4.0460    9.4632 H   0  0  0  0  0  0  0  0  0  0  0  0
  -23.1778    5.2207   15.0178 H   0  0  0  0  0  0  0  0  0  0  0  0
  1 14  1  0
  1 16  1  0
  1 39  1  0
  1 40  1  0
  2  3  1  0
  2 15  1  0
  2 16  1  0
  2 41  1  6
  3  4  1  0
  3  5  1  0
  3 42  1  0
  4  5  1  0
  4 43  1  0
  4 44  1  0
  5 45  1  0
  5 46  1  0
  6 11  2  0
  6 15  1  0
  6 26  1  0
  7  8  1  0
  7 35  1  0
  7 47  1  0
  7 48  1  0
  8  9  1  0
  8 38  1  0
  8 49  1  1
  9 10  1  0
  9 50  1  0
  9 51  1  0
 10 36  1  0
 10 37  1  0
 10 52  1  1
 11 12  1  0
 11 14  1  0
 12 13  2  0
 12 19  1  0
 15 53  1  0
 16 17  1  0
 16 18  1  0
 19 20  1  0
 19 21  1  0
 20 54  1  0
 20 55  1  0
 20 56  1  0
 21 22  1  0
 21 26  2  0
 22 23  2  0
 22 57  1  0
 23 24  1  0
 23 58  1  0
 24 25  2  0
 24 27  1  0
 25 26  1  0
 25 59  1  0
 27 28  1  0
 27 60  1  0
 28 29  2  0
 28 34  1  0
 29 30  1  0
 29 31  1  0
 31 32  2  0
 31 61  1  0
 32 33  1  0
 33 34  2  0
 33 35  1  0
 35 36  1  0
 36 62  1  0
 36 63  1  0
 37 64  1  0
 37 65  1  0
 37 66  1  0
 38 67  1  0
M  END
$$$$
