6YQW - prepared_ligand
     RDKit          3D

 19 19  0  0  1  0  0  0  0  0999 V2000
    2.8244   13.9790    9.0133 C   0  0  0  0  0  0  0  0  0  0  0  0
    1.4056   13.7618    9.2635 N   0  0  0  0  0  0  0  0  0  0  0  0
    0.7227   13.7303   10.4648 C   0  0  0  0  0  0  0  0  0  0  0  0
    1.4401   14.0222   11.6879 C   0  0  0  0  0  0  0  0  0  0  0  0
    0.8309   14.0156   12.8174 N   0  0  0  0  0  0  0  0  0  0  0  0
   -0.5275   13.7152   12.8734 N   0  0  0  0  0  0  0  0  0  0  0  0
   -1.1286   13.6962   14.2091 C   0  0  0  0  0  0  0  0  0  0  0  0
   -1.3409   13.4224   11.7961 C   0  0  0  0  0  0  0  0  0  0  0  0
   -2.5491   13.1858   11.8705 O   0  0  0  0  0  0  0  0  0  0  0  0
   -0.6063   13.4363   10.5301 C   0  0  0  0  0  0  0  0  0  0  0  0
   -1.5460   13.0598    9.0710 Cl  0  0  0  0  0  0  0  0  0  0  0  0
    3.0147   14.0167    7.9408 H   0  0  0  0  0  0  0  0  0  0  0  0
    3.1589   14.9208    9.4500 H   0  0  0  0  0  0  0  0  0  0  0  0
    3.4165   13.1673    9.4358 H   0  0  0  0  0  0  0  0  0  0  0  0
    0.9087   13.4758    8.4271 H   0  0  0  0  0  0  0  0  0  0  0  0
    2.4987   14.2539   11.6904 H   0  0  0  0  0  0  0  0  0  0  0  0
   -2.1121   14.1601   14.2231 H   0  0  0  0  0  0  0  0  0  0  0  0
   -1.2334   12.6706   14.5647 H   0  0  0  0  0  0  0  0  0  0  0  0
   -0.5266   14.2471   14.9330 H   0  0  0  0  0  0  0  0  0  0  0  0
  1  2  1  0
  1 12  1  0
  1 13  1  0
  1 14  1  0
  2  3  1  0
  2 15  1  0
  3  4  1  0
  3 10  2  0
  4  5  2  0
  4 16  1  0
  5  6  1  0
  6  7  1  0
  6  8  1  0
  7 17  1  0
  7 18  1  0
  7 19  1  0
  8  9  2  0
  8 10  1  0
 10 11  1  0
M  END
$$$$
