1OYT_ligand
     RDKit          3D

 30 34  0  0  1  0  0  0  0  0999 V2000
   16.8924  -12.9538   22.6147 O   0  0  0  0  0  0  0  0  0  0  0  0
   17.5804  -12.7274   21.6196 C   0  0  0  0  0  0  0  0  0  0  0  0
   18.6469  -13.4390   21.1777 N   0  0  0  0  0  0  0  0  0  0  0  0
   19.1660  -14.6145   21.8929 C   0  0  0  0  0  0  0  0  0  0  0  0
   19.9120  -14.2907   23.1802 C   0  0  0  0  0  0  0  0  0  0  0  0
   19.2464  -14.3548   24.4072 C   0  0  0  0  0  0  0  0  0  0  0  0
   19.9449  -14.1163   25.5869 C   0  0  0  0  0  0  0  0  0  0  0  0
   21.3074  -13.8353   25.5361 C   0  0  0  0  0  0  0  0  0  0  0  0
   21.9837  -13.6257   26.6835 F   0  0  0  0  0  0  0  0  0  0  0  0
   21.9800  -13.7873   24.3173 C   0  0  0  0  0  0  0  0  0  0  0  0
   21.2802  -14.0142   23.1355 C   0  0  0  0  0  0  0  0  0  0  0  0
   19.1877  -12.9874   20.0177 C   0  0  0  0  0  0  0  0  0  0  0  0
   20.1928  -13.3970   19.4373 O   0  0  0  0  0  0  0  0  0  0  0  0
   18.2850  -11.8718   19.5059 C   0  0  1  0  0  0  0  0  0  0  0  0
   17.3214  -12.4000   18.4004 C   0  0  1  0  0  0  0  0  0  0  0  0
   15.8891  -12.2849   18.9556 N   0  0  2  0  0  0  0  0  0  0  0  0
   14.9629  -11.9076   17.7805 C   0  0  0  0  0  0  0  0  0  0  0  0
   15.8655  -11.9781   16.5491 C   0  0  0  0  0  0  0  0  0  0  0  0
   17.2593  -11.6466   17.0712 C   0  0  0  0  0  0  0  0  0  0  0  0
   16.0277  -11.2563   20.0928 C   0  0  1  0  0  0  0  0  0  0  0  0
   14.8051  -11.2087   21.0093 C   0  0  0  0  0  0  0  0  0  0  0  0
   14.1849  -12.3831   21.4357 C   0  0  0  0  0  0  0  0  0  0  0  0
   13.1009  -12.3270   22.2979 C   0  0  0  0  0  0  0  0  0  0  0  0
   12.5802  -11.0965   22.7397 C   0  0  0  0  0  0  0  0  0  0  0  0
   13.2032   -9.9216   22.2770 C   0  0  0  0  0  0  0  0  0  0  0  0
   14.3067   -9.9768   21.4326 C   0  0  0  0  0  0  0  0  0  0  0  0
   11.4245  -11.0468   23.6567 C   0  0  0  0  0  0  0  0  0  0  0  0
   10.5224  -12.0133   23.6283 N   0  0  0  0  0  0  0  0  0  0  0  0
   11.2870  -10.0556   24.5241 N   0  0  0  0  0  0  0  0  0  0  0  0
   17.4276  -11.5207   20.6898 C   0  0  1  0  0  0  0  0  0  0  0  0
  1  2  2  0
  2  3  1  0
 30  2  1  1
  3  4  1  0
  3 12  1  0
  4  5  1  0
  5  6  2  0
  5 11  1  0
  6  7  1  0
  7  8  2  0
  8  9  1  0
  8 10  1  0
 10 11  2  0
 12 13  2  0
 14 12  1  1
 14 15  1  0
 14 30  1  0
 15 16  1  0
 15 19  1  6
 16 17  1  6
 16 20  1  0
 17 18  1  0
 18 19  1  0
 20 21  1  1
 20 30  1  0
 21 22  2  0
 21 26  1  0
 22 23  1  0
 23 24  2  0
 24 25  1  0
 24 27  1  0
 25 26  2  0
 27 28  2  0
 27 29  1  0
M  CHG  2  16   1  28   1
M  END
$$$$
