7ELT - prepared_ligand
     RDKit          3D

 60 64  0  0  1  0  0  0  0  0999 V2000
   11.8964   45.6806   16.1471 P   0  0  2  0  0  0  0  0  0  0  0  0
   12.7039   44.6841   16.9488 O   0  0  0  0  0  0  0  0  0  0  0  0
   10.5130   46.1353   16.5629 O   0  0  0  0  0  0  0  0  0  0  0  0
   11.7915   45.1384   14.5182 O   0  0  0  0  0  0  0  0  0  0  0  0
   12.9662   44.6169   13.9229 C   0  0  0  0  0  0  0  0  0  0  0  0
   13.0174   44.9497   12.4224 C   0  0  1  0  0  0  0  0  0  0  0  0
   11.8624   44.4127   11.7902 O   0  0  0  0  0  0  0  0  0  0  0  0
   11.0680   45.4218   11.2414 C   0  0  1  0  0  0  0  0  0  0  0  0
    9.6037   45.0880   11.3902 N   0  0  0  0  0  0  0  0  0  0  0  0
    8.7096   44.9700   10.3670 C   0  0  0  0  0  0  0  0  0  0  0  0
    8.9237   45.0714    9.0320 N   0  0  0  0  0  0  0  0  0  0  0  0
    7.8094   44.8077    8.3364 C   0  0  0  0  0  0  0  0  0  0  0  0
    6.5880   44.4936    8.7868 N   0  0  0  0  0  0  0  0  0  0  0  0
    6.3966   44.4450   10.1302 C   0  0  0  0  0  0  0  0  0  0  0  0
    5.1278   44.1287   10.5992 N   0  0  0  0  0  0  0  0  0  0  0  0
    7.4990   44.6927   10.9773 C   0  0  0  0  0  0  0  0  0  0  0  0
    7.6147   44.7122   12.3142 N   0  0  0  0  0  0  0  0  0  0  0  0
    8.8803   44.9745   12.5225 C   0  0  0  0  0  0  0  0  0  0  0  0
   11.5118   46.7395   11.8638 C   0  0  2  0  0  0  0  0  0  0  0  0
   11.1981   47.8105   10.9945 O   0  0  0  0  0  0  0  0  0  0  0  0
   12.9898   46.4445   12.0735 C   0  0  2  0  0  0  0  0  0  0  0  0
   13.7731   46.7278   10.9275 O   0  0  0  0  0  0  0  0  0  0  0  0
   14.1310   50.1974   17.1337 N   0  0  0  0  0  0  0  0  0  0  0  0
   14.2314   48.9178   16.4118 C   0  0  1  0  0  0  0  0  0  0  0  0
   15.5501   48.1909   16.7382 C   0  0  0  0  0  0  0  0  0  0  0  0
   16.8143   48.9749   16.5241 C   0  0  0  0  0  0  0  0  0  0  0  0
   17.4654   49.3709   15.2758 C   0  0  0  0  0  0  0  0  0  0  0  0
   18.6306   50.1317   15.6006 C   0  0  0  0  0  0  0  0  0  0  0  0
   17.1949   49.1765   13.9007 C   0  0  0  0  0  0  0  0  0  0  0  0
   17.5443   49.5408   17.5102 C   0  0  0  0  0  0  0  0  0  0  0  0
   18.6402   50.1754   16.9761 N   0  0  0  0  0  0  0  0  0  0  0  0
   19.4754   50.6787   14.6226 C   0  0  0  0  0  0  0  0  0  0  0  0
   18.0378   49.7239   12.9112 C   0  0  0  0  0  0  0  0  0  0  0  0
   19.1697   50.4808   13.2670 C   0  0  0  0  0  0  0  0  0  0  0  0
   13.0569   48.0183   16.7634 C   0  0  0  0  0  0  0  0  0  0  0  0
   12.3583   48.1521   17.7712 O   0  0  0  0  0  0  0  0  0  0  0  0
   12.8943   47.0522   15.8545 O   0  0  0  0  0  0  0  0  0  0  0  0
   12.9825   43.5373   14.0635 H   0  0  0  0  0  0  0  0  0  0  0  0
   13.8645   45.0110   14.4007 H   0  0  0  0  0  0  0  0  0  0  0  0
   13.8962   44.4588   12.0047 H   0  0  0  0  0  0  0  0  0  0  0  0
   11.2932   45.4147   10.1715 H   0  0  0  0  0  0  0  0  0  0  0  0
    7.9106   44.8499    7.2629 H   0  0  0  0  0  0  0  0  0  0  0  0
    4.9999   43.9372   11.5853 H   0  0  0  0  0  0  0  0  0  0  0  0
    4.4084   43.8962    9.9267 H   0  0  0  0  0  0  0  0  0  0  0  0
    9.3520   45.0809   13.4887 H   0  0  0  0  0  0  0  0  0  0  0  0
   11.0112   46.8648   12.8249 H   0  0  0  0  0  0  0  0  0  0  0  0
   10.2511   47.9830   11.0606 H   0  0  0  0  0  0  0  0  0  0  0  0
   13.3763   47.0450   12.8987 H   0  0  0  0  0  0  0  0  0  0  0  0
   14.6775   46.4428   11.1082 H   0  0  0  0  0  0  0  0  0  0  0  0
   13.7111   50.9111   16.5505 H   0  0  0  0  0  0  0  0  0  0  0  0
   13.5402   50.1034   17.9503 H   0  0  0  0  0  0  0  0  0  0  0  0
   14.2216   49.1168   15.3398 H   0  0  0  0  0  0  0  0  0  0  0  0
   15.6225   47.2822   16.1444 H   0  0  0  0  0  0  0  0  0  0  0  0
   15.5354   47.8583   17.7767 H   0  0  0  0  0  0  0  0  0  0  0  0
   16.3302   48.6002   13.6058 H   0  0  0  0  0  0  0  0  0  0  0  0
   17.3042   49.4764   18.5596 H   0  0  0  0  0  0  0  0  0  0  0  0
   19.3483   50.6141   17.5555 H   0  0  0  0  0  0  0  0  0  0  0  0
   20.3416   51.2531   14.9143 H   0  0  0  0  0  0  0  0  0  0  0  0
   17.8332   49.5541   11.8680 H   0  0  0  0  0  0  0  0  0  0  0  0
   19.8068   50.8924   12.4984 H   0  0  0  0  0  0  0  0  0  0  0  0
  1  2  1  1
  1  3  2  0
  1  4  1  0
  1 37  1  0
  4  5  1  0
  5  6  1  0
  5 38  1  0
  5 39  1  0
  6  7  1  0
  6 21  1  0
  6 40  1  6
  7  8  1  0
  8  9  1  0
  8 19  1  0
  8 41  1  6
  9 10  1  0
  9 18  1  0
 10 11  2  0
 10 16  1  0
 11 12  1  0
 12 13  2  0
 12 42  1  0
 13 14  1  0
 14 15  1  0
 14 16  2  0
 15 43  1  0
 15 44  1  0
 16 17  1  0
 17 18  2  0
 18 45  1  0
 19 20  1  0
 19 21  1  0
 19 46  1  1
 20 47  1  0
 21 22  1  0
 21 48  1  1
 22 49  1  0
 23 24  1  0
 23 50  1  0
 23 51  1  0
 24 25  1  0
 24 35  1  0
 24 52  1  6
 25 26  1  0
 25 53  1  0
 25 54  1  0
 26 27  1  0
 26 30  2  0
 27 28  1  0
 27 29  2  0
 28 31  1  0
 28 32  2  0
 29 33  1  0
 29 55  1  0
 30 31  1  0
 30 56  1  0
 31 57  1  0
 32 34  1  0
 32 58  1  0
 33 34  2  0
 33 59  1  0
 34 60  1  0
 35 36  2  0
 35 37  1  0
M  CHG  1   2  -1
M  END
$$$$
