1YDT_ligand
     RDKit          3D

 27 29  0  0  1  0  0  0  0  0999 V2000
    6.8088   10.3289    2.8048 C   0  0  0  0  0  0  0  0  0  0  0  0
    6.8933   10.3354    1.4094 C   0  0  0  0  0  0  0  0  0  0  0  0
    5.7533   10.2367    0.6232 C   0  0  0  0  0  0  0  0  0  0  0  0
    4.4990   10.1204    1.2061 C   0  0  0  0  0  0  0  0  0  0  0  0
    4.3806   10.1079    2.6145 C   0  0  0  0  0  0  0  0  0  0  0  0
    3.1407    9.9666    3.2634 C   0  0  0  0  0  0  0  0  0  0  0  0
    2.9617    9.9865    4.5997 N   0  0  0  0  0  0  0  0  0  0  0  0
    4.0575   10.1130    5.3721 C   0  0  0  0  0  0  0  0  0  0  0  0
    5.3456   10.2121    4.8591 C   0  0  0  0  0  0  0  0  0  0  0  0
    5.5380   10.2312    3.4417 C   0  0  0  0  0  0  0  0  0  0  0  0
    8.3077   10.4716    3.7574 S   0  0  0  0  0  0  0  0  0  0  0  0
    8.0716   11.4176    4.8540 O   0  0  0  0  0  0  0  0  0  0  0  0
    9.4176   10.7125    2.8326 O   0  0  0  0  0  0  0  0  0  0  0  0
    8.4434    8.8619    4.4630 N   0  0  0  0  0  0  0  0  0  0  0  0
    9.1932    7.8018    3.7762 C   0  0  0  0  0  0  0  0  0  0  0  0
   10.6402    8.2705    3.6204 C   0  0  0  0  0  0  0  0  0  0  0  0
   11.6703    7.1389    3.6348 N   0  0  0  0  0  0  0  0  0  0  0  0
   13.1012    7.7050    3.6558 C   0  0  0  0  0  0  0  0  0  0  0  0
   13.3521    8.7417    2.5705 C   0  0  0  0  0  0  0  0  0  0  0  0
   13.2383   10.0761    2.7432 C   0  0  0  0  0  0  0  0  0  0  0  0
   13.4608   11.1086    1.7114 C   0  0  0  0  0  0  0  0  0  0  0  0
   14.1861   10.8286    0.5476 C   0  0  0  0  0  0  0  0  0  0  0  0
   14.4048   11.8221   -0.4000 C   0  0  0  0  0  0  0  0  0  0  0  0
   13.9036   13.1013   -0.1867 C   0  0  0  0  0  0  0  0  0  0  0  0
   14.2827   14.4657   -1.4549 Br  0  0  0  0  0  0  0  0  0  0  0  0
   13.1514   13.3877    0.9509 C   0  0  0  0  0  0  0  0  0  0  0  0
   12.9260   12.3897    1.8960 C   0  0  0  0  0  0  0  0  0  0  0  0
  1  2  2  0
  1 10  1  0
  1 11  1  0
  2  3  1  0
  3  4  2  0
  4  5  1  0
  5  6  1  0
  5 10  2  0
  6  7  2  0
  7  8  1  0
  8  9  2  0
  9 10  1  0
 11 12  2  0
 11 13  2  0
 11 14  1  0
 14 15  1  0
 15 16  1  0
 16 17  1  0
 17 18  1  0
 18 19  1  0
 19 20  2  0
 20 21  1  0
 21 22  2  0
 21 27  1  0
 22 23  1  0
 23 24  2  0
 24 25  1  0
 24 26  1  0
 26 27  2  0
M  CHG  1  17   1
M  END
$$$$
