7KZ9 - prepared_ligand2
     RDKit          3D

 26 25  0  0  1  0  0  0  0  0999 V2000
  -52.9477   48.7616  -20.8935 C   0  0  0  0  0  0  0  0  0  0  0  0
  -53.9336   47.5830  -20.9686 C   0  0  0  0  0  0  0  0  0  0  0  0
  -55.4386   48.1529  -18.9544 C   0  0  0  0  0  0  0  0  0  0  0  0
  -55.6691   47.7217  -17.4965 C   0  0  0  0  0  0  0  0  0  0  0  0
  -57.1525   48.0096  -15.5231 C   0  0  0  0  0  0  0  0  0  0  0  0
  -57.6370   46.5685  -15.2475 C   0  0  0  0  0  0  0  0  0  0  0  0
  -54.4922   47.1904  -19.5921 N   0  0  0  0  0  0  0  0  0  0  0  0
  -56.7273   48.2822  -16.8953 N   0  0  0  0  0  0  0  0  0  0  0  0
  -53.6351   49.9847  -20.8921 O   0  0  0  0  0  0  0  0  0  0  0  0
  -54.9212   46.9295  -16.9175 O   0  0  0  0  0  0  0  0  0  0  0  0
  -58.6558   46.1914  -16.1510 O   0  0  0  0  0  0  0  0  0  0  0  0
  -52.2786   48.7492  -21.7485 H   0  0  0  0  0  0  0  0  0  0  0  0
  -52.3100   48.7121  -20.0122 H   0  0  0  0  0  0  0  0  0  0  0  0
  -53.4201   46.6777  -21.2868 H   0  0  0  0  0  0  0  0  0  0  0  0
  -54.7962   47.7455  -21.6177 H   0  0  0  0  0  0  0  0  0  0  0  0
  -54.9687   49.1330  -18.9729 H   0  0  0  0  0  0  0  0  0  0  0  0
  -56.3492   48.1432  -19.5565 H   0  0  0  0  0  0  0  0  0  0  0  0
  -56.3344   48.2572  -14.8457 H   0  0  0  0  0  0  0  0  0  0  0  0
  -57.9467   48.7097  -15.2696 H   0  0  0  0  0  0  0  0  0  0  0  0
  -58.0020   46.4645  -14.2251 H   0  0  0  0  0  0  0  0  0  0  0  0
  -56.8205   45.8593  -15.3855 H   0  0  0  0  0  0  0  0  0  0  0  0
  -53.7010   47.0287  -18.9794 H   0  0  0  0  0  0  0  0  0  0  0  0
  -54.9638   46.2992  -19.7012 H   0  0  0  0  0  0  0  0  0  0  0  0
  -57.2798   48.9544  -17.4138 H   0  0  0  0  0  0  0  0  0  0  0  0
  -54.0346   50.1113  -21.7622 H   0  0  0  0  0  0  0  0  0  0  0  0
  -59.4795   46.6045  -15.8687 H   0  0  0  0  0  0  0  0  0  0  0  0
  1  2  1  0
  1  9  1  0
  1 12  1  0
  1 13  1  0
  2  7  1  0
  2 14  1  0
  2 15  1  0
  3  4  1  0
  3  7  1  0
  3 16  1  0
  3 17  1  0
  4  8  1  0
  4 10  2  0
  5  6  1  0
  5  8  1  0
  5 18  1  0
  5 19  1  0
  6 11  1  0
  6 20  1  0
  6 21  1  0
  7 22  1  0
  7 23  1  0
  8 24  1  0
  9 25  1  0
 11 26  1  0
M  CHG  1   7   1
M  END
$$$$
