1HVY - prepared_ligand7
     RDKit          3D

 52 54  0  0  1  0  0  0  0  0999 V2000
   66.7975   40.0763   23.2396 N   0  0  0  0  0  0  0  0  0  0  0  0
   67.2248   39.4682   24.2891 C   0  0  0  0  0  0  0  0  0  0  0  0
   67.7444   38.0561   24.1983 C   0  0  0  0  0  0  0  0  0  0  0  0
   67.2858   40.0962   25.5043 N   0  0  0  0  0  0  0  0  0  0  0  0
   66.9794   41.3892   25.7786 C   0  0  0  0  0  0  0  0  0  0  0  0
   67.0803   41.8623   26.9067 O   0  0  0  0  0  0  0  0  0  0  0  0
   66.5348   42.1370   24.5445 C   0  0  0  0  0  0  0  0  0  0  0  0
   66.2573   43.4994   24.6096 C   0  0  0  0  0  0  0  0  0  0  0  0
   65.9906   44.2062   23.4297 C   0  0  0  0  0  0  0  0  0  0  0  0
   65.9058   43.5083   22.2174 C   0  0  0  0  0  0  0  0  0  0  0  0
   66.1241   42.1290   22.1665 C   0  0  0  0  0  0  0  0  0  0  0  0
   66.4726   41.4438   23.3284 C   0  0  0  0  0  0  0  0  0  0  0  0
   65.8318   45.7278   23.4069 C   0  0  0  0  0  0  0  0  0  0  0  0
   66.0470   46.4030   24.6955 N   0  0  0  0  0  0  0  0  0  0  0  0
   69.6608   46.6964   26.0074 C   0  0  0  0  0  0  0  0  0  0  0  0
   68.7879   46.2307   24.5728 S   0  0  0  0  0  0  0  0  0  0  0  0
   67.2549   46.5037   25.3596 C   0  0  0  0  0  0  0  0  0  0  0  0
   67.4416   46.8353   26.6976 C   0  0  0  0  0  0  0  0  0  0  0  0
   68.7813   46.9366   27.0646 C   0  0  0  0  0  0  0  0  0  0  0  0
   71.1028   46.7532   26.0103 C   0  0  0  0  0  0  0  0  0  0  0  0
   71.7855   46.3269   25.0762 O   0  0  0  0  0  0  0  0  0  0  0  0
   71.6122   47.3571   27.1004 N   0  0  0  0  0  0  0  0  0  0  0  0
   73.0330   47.5954   27.4116 C   0  0  1  0  0  0  0  0  0  0  0  0
   73.5347   48.9612   26.8541 C   0  0  0  0  0  0  0  0  0  0  0  0
   73.4559   49.1496   25.3229 C   0  0  0  0  0  0  0  0  0  0  0  0
   74.1200   50.4341   24.7908 C   0  0  0  0  0  0  0  0  0  0  0  0
   74.6462   51.2371   25.5962 O   0  0  0  0  0  0  0  0  0  0  0  0
   74.0898   50.5992   23.5520 O   0  0  0  0  0  0  0  0  0  0  0  0
   73.2957   47.6025   28.9694 C   0  0  0  0  0  0  0  0  0  0  0  0
   72.3170   47.7951   29.7312 O   0  0  0  0  0  0  0  0  0  0  0  0
   74.4956   47.4196   29.2829 O   0  0  0  0  0  0  0  0  0  0  0  0
   64.8783   47.0889   25.2297 C   0  0  0  0  0  0  0  0  0  0  0  0
   67.9034   37.6199   25.1840 H   0  0  0  0  0  0  0  0  0  0  0  0
   67.0650   37.4065   23.6468 H   0  0  0  0  0  0  0  0  0  0  0  0
   68.7002   38.0601   23.6772 H   0  0  0  0  0  0  0  0  0  0  0  0
   67.6581   39.5837   26.2947 H   0  0  0  0  0  0  0  0  0  0  0  0
   66.3163   44.0074   25.5612 H   0  0  0  0  0  0  0  0  0  0  0  0
   65.6941   44.0431   21.3029 H   0  0  0  0  0  0  0  0  0  0  0  0
   66.0743   41.6077   21.2228 H   0  0  0  0  0  0  0  0  0  0  0  0
   64.8511   45.9557   22.9981 H   0  0  0  0  0  0  0  0  0  0  0  0
   66.5361   46.1413   22.6904 H   0  0  0  0  0  0  0  0  0  0  0  0
   66.6318   47.0130   27.3879 H   0  0  0  0  0  0  0  0  0  0  0  0
   69.0902   47.1988   28.0661 H   0  0  0  0  0  0  0  0  0  0  0  0
   70.9820   47.5875   27.8547 H   0  0  0  0  0  0  0  0  0  0  0  0
   73.6330   46.7885   26.9821 H   0  0  0  0  0  0  0  0  0  0  0  0
   74.5783   49.0907   27.1454 H   0  0  0  0  0  0  0  0  0  0  0  0
   72.9854   49.7741   27.3336 H   0  0  0  0  0  0  0  0  0  0  0  0
   72.4121   49.1610   25.0080 H   0  0  0  0  0  0  0  0  0  0  0  0
   73.9219   48.2944   24.8309 H   0  0  0  0  0  0  0  0  0  0  0  0
   65.0092   48.1672   25.1715 H   0  0  0  0  0  0  0  0  0  0  0  0
   63.9828   46.8558   24.6563 H   0  0  0  0  0  0  0  0  0  0  0  0
   64.6695   46.7805   26.2527 H   0  0  0  0  0  0  0  0  0  0  0  0
  1  2  2  0
  1 12  1  0
  2  3  1  0
  2  4  1  0
  3 33  1  0
  3 34  1  0
  3 35  1  0
  4  5  1  0
  4 36  1  0
  5  6  2  0
  5  7  1  0
  7  8  1  0
  7 12  2  0
  8  9  2  0
  8 37  1  0
  9 10  1  0
  9 13  1  0
 10 11  2  0
 10 38  1  0
 11 12  1  0
 11 39  1  0
 13 14  1  0
 13 40  1  0
 13 41  1  0
 14 17  1  0
 14 32  1  0
 15 16  1  0
 15 19  2  0
 15 20  1  0
 16 17  1  0
 17 18  2  0
 18 19  1  0
 18 42  1  0
 19 43  1  0
 20 21  2  0
 20 22  1  0
 22 23  1  0
 22 44  1  0
 23 24  1  0
 23 29  1  0
 23 45  1  6
 24 25  1  0
 24 46  1  0
 24 47  1  0
 25 26  1  0
 25 48  1  0
 25 49  1  0
 26 27  2  0
 26 28  1  0
 29 30  2  0
 29 31  1  0
 32 50  1  0
 32 51  1  0
 32 52  1  0
M  CHG  2  28  -1  31  -1
M  END
$$$$
