2ZCQ_ligand
     RDKit          3D

 25 26  0  0  1  0  0  0  0  0999 V2000
   15.0226   55.8016   40.0425 C   0  0  0  0  0  0  0  0  0  0  0  0
   14.6409   56.6736   41.0574 C   0  0  0  0  0  0  0  0  0  0  0  0
   13.6975   56.2678   41.9990 C   0  0  0  0  0  0  0  0  0  0  0  0
   13.1401   54.9915   41.9428 C   0  0  0  0  0  0  0  0  0  0  0  0
   13.5390   54.1108   40.9409 C   0  0  0  0  0  0  0  0  0  0  0  0
   14.4668   54.5251   39.9788 C   0  0  0  0  0  0  0  0  0  0  0  0
   14.7647   53.7378   38.8923 O   0  0  0  0  0  0  0  0  0  0  0  0
   15.6269   52.6670   38.9680 C   0  0  0  0  0  0  0  0  0  0  0  0
   16.0307   52.1092   37.7546 C   0  0  0  0  0  0  0  0  0  0  0  0
   16.1039   52.1138   40.1652 C   0  0  0  0  0  0  0  0  0  0  0  0
   16.9808   51.0316   40.1388 C   0  0  0  0  0  0  0  0  0  0  0  0
   17.3898   50.4900   38.9209 C   0  0  0  0  0  0  0  0  0  0  0  0
   16.9120   51.0272   37.7229 C   0  0  0  0  0  0  0  0  0  0  0  0
   17.3223   50.4291   36.3905 C   0  0  0  0  0  0  0  0  0  0  0  0
   18.5069   51.1323   35.6963 C   0  0  0  0  0  0  0  0  0  0  0  0
   19.8080   51.2121   36.5113 C   0  0  0  0  0  0  0  0  0  0  0  0
   21.0737   51.6552   35.7222 C   0  0  2  0  0  0  0  0  0  0  0  0
   21.4780   50.6318   34.1439 P   0  0  0  0  0  0  0  0  0  0  0  0
   22.9170   50.9981   33.7629 O   0  0  0  0  0  0  0  0  0  0  0  0
   21.3284   49.2013   34.6546 O   0  0  0  0  0  0  0  0  0  0  0  0
   20.4340   51.0818   33.1227 O   0  0  0  0  0  0  0  0  0  0  0  0
   22.5196   51.6644   36.9511 S   0  0  0  0  0  0  0  0  0  0  0  0
   23.6660   52.1190   36.1578 O   0  0  0  0  0  0  0  0  0  0  0  0
   22.6215   50.2746   37.4167 O   0  0  0  0  0  0  0  0  0  0  0  0
   22.1065   52.6214   37.9846 O   0  0  0  0  0  0  0  0  0  0  0  0
  1  2  2  0
  1  6  1  0
  2  3  1  0
  3  4  2  0
  4  5  1  0
  5  6  2  0
  6  7  1  0
  7  8  1  0
  8  9  2  0
  8 10  1  0
  9 13  1  0
 10 11  2  0
 11 12  1  0
 12 13  2  0
 13 14  1  0
 14 15  1  0
 15 16  1  0
 17 16  1  1
 17 18  1  0
 17 22  1  0
 18 19  1  0
 18 20  1  0
 18 21  2  0
 22 23  2  0
 22 24  2  0
 22 25  1  0
M  CHG  3  19  -1  20  -1  25  -1
M  END
$$$$
