7ORW - prepared_ligand
     RDKit          3D

 17 18  0  0  1  0  0  0  0  0999 V2000
    3.2400  109.3054   10.6770 C   0  0  0  0  0  0  0  0  0  0  0  0
    1.8686  107.2712   10.4207 N   0  0  0  0  0  0  0  0  0  0  0  0
    2.4854  108.4123    9.9064 C   0  0  0  0  0  0  0  0  0  0  0  0
    2.3623  108.7228    8.5487 C   0  0  0  0  0  0  0  0  0  0  0  0
    2.9613  109.8511    7.9857 C   0  0  0  0  0  0  0  0  0  0  0  0
    3.7150  110.7342    8.7583 C   0  0  0  0  0  0  0  0  0  0  0  0
    3.8582  110.4592   10.1244 C   0  0  0  0  0  0  0  0  0  0  0  0
    4.5467  111.1642   11.0789 N   0  0  0  0  0  0  0  0  0  0  0  0
    4.3625  110.4804   12.1780 C   0  0  0  0  0  0  0  0  0  0  0  0
    3.5884  109.3602   12.0067 N   0  0  0  0  0  0  0  0  0  0  0  0
    1.3368  106.7059    9.7717 H   0  0  0  0  0  0  0  0  0  0  0  0
    2.3424  106.7974   11.1780 H   0  0  0  0  0  0  0  0  0  0  0  0
    1.7868  108.0743    7.9050 H   0  0  0  0  0  0  0  0  0  0  0  0
    2.8394  110.0448    6.9303 H   0  0  0  0  0  0  0  0  0  0  0  0
    4.1769  111.6028    8.3122 H   0  0  0  0  0  0  0  0  0  0  0  0
    4.7542  110.7176   13.1561 H   0  0  0  0  0  0  0  0  0  0  0  0
    3.3566  108.7097   12.7499 H   0  0  0  0  0  0  0  0  0  0  0  0
  1  3  2  0
  1  7  1  0
  1 10  1  0
  2  3  1  0
  2 11  1  0
  2 12  1  0
  3  4  1  0
  4  5  2  0
  4 13  1  0
  5  6  1  0
  5 14  1  0
  6  7  2  0
  6 15  1  0
  7  8  1  0
  8  9  2  0
  9 10  1  0
  9 16  1  0
 10 17  1  0
M  END
$$$$
