7ZHP - prepared_ligand
     RDKit          3D

 51 54  0  0  1  0  0  0  0  0999 V2000
   71.6356   38.3758    0.9046 N   0  0  0  0  0  0  0  0  0  0  0  0
   66.7219   34.8494    4.3753 C   0  0  0  0  0  0  0  0  0  0  0  0
   73.6915   37.7509   -0.1597 N   0  0  0  0  0  0  0  0  0  0  0  0
   67.1786   37.0448    2.8743 C   0  0  0  0  0  0  0  0  0  0  0  0
   67.4346   38.2313    2.0758 C   0  0  0  0  0  0  0  0  0  0  0  0
   66.4405   39.1924    1.9045 C   0  0  0  0  0  0  0  0  0  0  0  0
   65.3502   34.5259    4.3148 O   0  0  0  0  0  0  0  0  0  0  0  0
   67.4883   33.6106    3.8172 C   0  0  0  0  0  0  0  0  0  0  0  0
   67.3394   33.3320    2.3091 C   0  0  0  0  0  0  0  0  0  0  0  0
   67.0453   35.1213    5.8758 C   0  0  0  0  0  0  0  0  0  0  0  0
   67.0636   33.8842    6.7919 C   0  0  0  0  0  0  0  0  0  0  0  0
   66.9787   36.0619    3.5700 C   0  0  0  0  0  0  0  0  0  0  0  0
   68.6931   38.4032    1.5073 C   0  0  0  0  0  0  0  0  0  0  0  0
   68.9894   39.5918    0.8119 C   0  0  0  0  0  0  0  0  0  0  0  0
   67.9534   40.5627    0.6885 C   0  0  0  0  0  0  0  0  0  0  0  0
   66.6688   40.3712    1.2009 C   0  0  0  0  0  0  0  0  0  0  0  0
   70.1530   40.1355    0.1346 C   0  0  0  0  0  0  0  0  0  0  0  0
   71.4497   39.3792    0.0020 C   0  0  0  0  0  0  0  0  0  0  0  0
   72.3925   39.6111   -1.0232 C   0  0  0  0  0  0  0  0  0  0  0  0
   73.5072   38.7663   -1.0372 C   0  0  0  0  0  0  0  0  0  0  0  0
   72.7265   37.5911    0.7691 C   0  0  0  0  0  0  0  0  0  0  0  0
   72.8343   36.5039    1.6254 N   0  0  0  0  0  0  0  0  0  0  0  0
   72.2372   40.7131   -2.0604 C   0  0  0  0  0  0  0  0  0  0  0  0
   71.9816   42.1213   -1.5013 C   0  0  0  0  0  0  0  0  0  0  0  0
   70.5174   42.4321   -1.1715 C   0  0  0  0  0  0  0  0  0  0  0  0
   69.7919   41.3893   -0.3520 C   0  0  0  0  0  0  0  0  0  0  0  0
   68.4906   41.6259    0.0083 N   0  0  0  0  0  0  0  0  0  0  0  0
   65.4600   39.0370    2.3282 H   0  0  0  0  0  0  0  0  0  0  0  0
   64.8573   35.2265    4.7594 H   0  0  0  0  0  0  0  0  0  0  0  0
   67.1750   32.7130    4.3523 H   0  0  0  0  0  0  0  0  0  0  0  0
   68.5509   33.7065    4.0379 H   0  0  0  0  0  0  0  0  0  0  0  0
   67.7748   32.3709    2.0520 H   0  0  0  0  0  0  0  0  0  0  0  0
   66.2934   33.3115    2.0013 H   0  0  0  0  0  0  0  0  0  0  0  0
   67.8559   34.0912    1.7236 H   0  0  0  0  0  0  0  0  0  0  0  0
   66.3212   35.8293    6.2829 H   0  0  0  0  0  0  0  0  0  0  0  0
   68.0122   35.6174    5.9764 H   0  0  0  0  0  0  0  0  0  0  0  0
   67.0100   34.1608    7.8448 H   0  0  0  0  0  0  0  0  0  0  0  0
   66.2280   33.2213    6.5816 H   0  0  0  0  0  0  0  0  0  0  0  0
   67.9763   33.3104    6.6482 H   0  0  0  0  0  0  0  0  0  0  0  0
   69.4326   37.6278    1.6332 H   0  0  0  0  0  0  0  0  0  0  0  0
   65.8896   41.1106    1.0852 H   0  0  0  0  0  0  0  0  0  0  0  0
   74.2702   38.8928   -1.7857 H   0  0  0  0  0  0  0  0  0  0  0  0
   73.6277   35.8790    1.5453 H   0  0  0  0  0  0  0  0  0  0  0  0
   72.0997   36.3294    2.2945 H   0  0  0  0  0  0  0  0  0  0  0  0
   71.4620   40.4135   -2.7650 H   0  0  0  0  0  0  0  0  0  0  0  0
   73.1503   40.7491   -2.6547 H   0  0  0  0  0  0  0  0  0  0  0  0
   72.3234   42.8573   -2.2302 H   0  0  0  0  0  0  0  0  0  0  0  0
   72.6010   42.2815   -0.6213 H   0  0  0  0  0  0  0  0  0  0  0  0
   69.9781   42.5813   -2.1077 H   0  0  0  0  0  0  0  0  0  0  0  0
   70.4732   43.3939   -0.6611 H   0  0  0  0  0  0  0  0  0  0  0  0
   68.0225   42.4923   -0.2250 H   0  0  0  0  0  0  0  0  0  0  0  0
  1 18  2  0
  1 21  1  0
  2  7  1  0
  2  8  1  0
  2 10  1  0
  2 12  1  0
  3 20  1  0
  3 21  2  0
  4  5  1  0
  4 12  3  0
  5  6  2  0
  5 13  1  0
  6 16  1  0
  6 28  1  0
  7 29  1  0
  8  9  1  0
  8 30  1  0
  8 31  1  0
  9 32  1  0
  9 33  1  0
  9 34  1  0
 10 11  1  0
 10 35  1  0
 10 36  1  0
 11 37  1  0
 11 38  1  0
 11 39  1  0
 13 14  2  0
 13 40  1  0
 14 15  1  0
 14 17  1  0
 15 16  2  0
 15 27  1  0
 16 41  1  0
 17 18  1  0
 17 26  2  0
 18 19  1  0
 19 20  2  0
 19 23  1  0
 20 42  1  0
 21 22  1  0
 22 43  1  0
 22 44  1  0
 23 24  1  0
 23 45  1  0
 23 46  1  0
 24 25  1  0
 24 47  1  0
 24 48  1  0
 25 26  1  0
 25 49  1  0
 25 50  1  0
 26 27  1  0
 27 51  1  0
M  END
$$$$
