7KM8 - prepared_ligand4
     RDKit          3D

 53 54  0  0  1  0  0  0  0  0999 V2000
  -33.0266    0.1059  -11.1081 C   0  0  0  0  0  0  0  0  0  0  0  0
  -33.4386   -1.1780  -10.8266 O   0  0  0  0  0  0  0  0  0  0  0  0
  -29.8022   -0.9797  -12.0665 C   0  0  0  0  0  0  0  0  0  0  0  0
  -31.2001   -0.8111  -12.6766 C   0  0  0  0  0  0  0  0  0  0  0  0
  -31.9857    0.3161  -12.0295 C   0  0  0  0  0  0  0  0  0  0  0  0
  -32.2416    2.6343  -11.7690 C   0  0  0  0  0  0  0  0  0  0  0  0
  -33.6370    1.2505  -10.5572 C   0  0  0  0  0  0  0  0  0  0  0  0
  -33.2919   -1.6058   -9.4771 C   0  0  0  0  0  0  0  0  0  0  0  0
  -33.2896   -3.1356   -9.4317 C   0  0  0  0  0  0  0  0  0  0  0  0
  -32.1083   -3.7664  -10.1811 C   0  0  0  0  0  0  0  0  0  0  0  0
  -29.7119   -3.9668   -9.9280 C   0  0  0  0  0  0  0  0  0  0  0  0
  -29.6029   -4.8986  -10.9715 C   0  0  0  0  0  0  0  0  0  0  0  0
  -28.3978   -5.5487  -11.2157 C   0  0  0  0  0  0  0  0  0  0  0  0
  -27.2889   -5.2700  -10.4250 C   0  0  0  0  0  0  0  0  0  0  0  0
  -27.3586   -4.3100   -9.4178 C   0  0  0  0  0  0  0  0  0  0  0  0
  -26.1209   -4.0215   -8.5786 C   0  0  0  0  0  0  0  0  0  0  0  0
  -25.5855   -2.5593   -8.6743 C   0  0  2  0  0  0  0  0  0  0  0  0
  -24.1172   -2.4994   -9.1647 C   0  0  0  0  0  0  0  0  0  0  0  0
  -25.7332   -1.8500   -7.3062 C   0  0  0  0  0  0  0  0  0  0  0  0
  -28.5732   -3.6592   -9.1772 C   0  0  0  0  0  0  0  0  0  0  0  0
  -23.6201   -1.2623   -9.2165 F   0  0  0  0  0  0  0  0  0  0  0  0
  -23.9555   -3.0606  -10.3634 F   0  0  0  0  0  0  0  0  0  0  0  0
  -31.6247    1.5812  -12.3254 N   0  0  0  0  0  0  0  0  0  0  0  0
  -31.8671    3.9439  -12.0968 N   0  0  0  0  0  0  0  0  0  0  0  0
  -33.2465    2.5120  -10.8746 N   0  0  0  0  0  0  0  0  0  0  0  0
  -34.7020    1.1592   -9.6726 N   0  0  0  0  0  0  0  0  0  0  0  0
  -30.8875   -3.3322   -9.5819 O   0  0  0  0  0  0  0  0  0  0  0  0
  -24.9971   -2.2161   -6.3621 O   0  0  0  0  0  0  0  0  0  0  0  0
  -26.6019   -0.9591   -7.2024 O   0  0  0  0  0  0  0  0  0  0  0  0
  -29.3117   -1.8607  -12.4794 H   0  0  0  0  0  0  0  0  0  0  0  0
  -29.1690   -0.1140  -12.2668 H   0  0  0  0  0  0  0  0  0  0  0  0
  -29.8543   -1.1130  -10.9852 H   0  0  0  0  0  0  0  0  0  0  0  0
  -31.7524   -1.7415  -12.5746 H   0  0  0  0  0  0  0  0  0  0  0  0
  -31.1240   -0.6293  -13.7488 H   0  0  0  0  0  0  0  0  0  0  0  0
  -34.1165   -1.2414   -8.8691 H   0  0  0  0  0  0  0  0  0  0  0  0
  -32.3702   -1.2223   -9.0395 H   0  0  0  0  0  0  0  0  0  0  0  0
  -34.2273   -3.5038   -9.8470 H   0  0  0  0  0  0  0  0  0  0  0  0
  -33.2751   -3.4641   -8.3922 H   0  0  0  0  0  0  0  0  0  0  0  0
  -32.1328   -3.4968  -11.2359 H   0  0  0  0  0  0  0  0  0  0  0  0
  -32.2050   -4.8521  -10.1303 H   0  0  0  0  0  0  0  0  0  0  0  0
  -30.4449   -5.1389  -11.5984 H   0  0  0  0  0  0  0  0  0  0  0  0
  -28.3304   -6.2803  -12.0058 H   0  0  0  0  0  0  0  0  0  0  0  0
  -26.3670   -5.8014  -10.5932 H   0  0  0  0  0  0  0  0  0  0  0  0
  -25.3294   -4.7148   -8.8639 H   0  0  0  0  0  0  0  0  0  0  0  0
  -26.3590   -4.3158   -7.5550 H   0  0  0  0  0  0  0  0  0  0  0  0
  -26.1754   -2.0141   -9.4153 H   0  0  0  0  0  0  0  0  0  0  0  0
  -23.4626   -3.0592   -8.4955 H   0  0  0  0  0  0  0  0  0  0  0  0
  -28.6407   -2.9235   -8.3914 H   0  0  0  0  0  0  0  0  0  0  0  0
  -30.8869    1.7409  -13.0021 H   0  0  0  0  0  0  0  0  0  0  0  0
  -32.3496    4.7307  -11.6866 H   0  0  0  0  0  0  0  0  0  0  0  0
  -31.1566    4.1026  -12.8022 H   0  0  0  0  0  0  0  0  0  0  0  0
  -35.1692    2.0133   -9.3969 H   0  0  0  0  0  0  0  0  0  0  0  0
  -35.1036    0.2539   -9.4680 H   0  0  0  0  0  0  0  0  0  0  0  0
  1  2  1  0
  1  5  2  0
  1  7  1  0
  2  8  1  0
  3  4  1  0
  3 30  1  0
  3 31  1  0
  3 32  1  0
  4  5  1  0
  4 33  1  0
  4 34  1  0
  5 23  1  0
  6 23  2  0
  6 24  1  0
  6 25  1  0
  7 25  2  0
  7 26  1  0
  8  9  1  0
  8 35  1  0
  8 36  1  0
  9 10  1  0
  9 37  1  0
  9 38  1  0
 10 27  1  0
 10 39  1  0
 10 40  1  0
 11 12  2  0
 11 20  1  0
 11 27  1  0
 12 13  1  0
 12 41  1  0
 13 14  2  0
 13 42  1  0
 14 15  1  0
 14 43  1  0
 15 16  1  0
 15 20  2  0
 16 17  1  0
 16 44  1  0
 16 45  1  0
 17 18  1  0
 17 19  1  0
 17 46  1  6
 18 21  1  0
 18 22  1  0
 18 47  1  0
 19 28  2  0
 19 29  1  0
 20 48  1  0
 23 49  1  0
 24 50  1  0
 24 51  1  0
 26 52  1  0
 26 53  1  0
M  CHG  2  23   1  29  -1
M  END
$$$$
