1U1C - prepared_ligand6
     RDKit          3D

 36 37  0  0  1  0  0  0  0  0999 V2000
    9.3944  139.4594   45.0189 O   0  0  0  0  0  0  0  0  0  0  0  0
    8.5108  138.6049   45.7157 C   0  0  0  0  0  0  0  0  0  0  0  0
    9.2208  137.3294   46.1714 C   0  0  0  0  0  0  0  0  0  0  0  0
    9.5830  136.5673   45.0268 O   0  0  0  0  0  0  0  0  0  0  0  0
   10.0862  135.2848   45.2511 C   0  0  0  0  0  0  0  0  0  0  0  0
   11.3941  135.3451   45.8643 N   0  0  0  0  0  0  0  0  0  0  0  0
   11.5159  135.1007   47.2146 C   0  0  0  0  0  0  0  0  0  0  0  0
   10.5957  134.9950   48.0223 O   0  0  0  0  0  0  0  0  0  0  0  0
   12.8095  134.9861   47.6402 N   0  0  0  0  0  0  0  0  0  0  0  0
   13.9729  135.1354   46.9429 C   0  0  0  0  0  0  0  0  0  0  0  0
   15.0657  134.9503   47.4694 O   0  0  0  0  0  0  0  0  0  0  0  0
   12.4989  135.5489   45.0791 C   0  0  0  0  0  0  0  0  0  0  0  0
   13.7642  135.5088   45.5464 C   0  0  0  0  0  0  0  0  0  0  0  0
   14.9810  135.8426   44.6985 C   0  0  0  0  0  0  0  0  0  0  0  0
   15.5216  137.2411   44.9703 C   0  0  0  0  0  0  0  0  0  0  0  0
   14.8029  138.3578   44.5328 C   0  0  0  0  0  0  0  0  0  0  0  0
   15.2877  139.6402   44.7746 C   0  0  0  0  0  0  0  0  0  0  0  0
   16.4949  139.8019   45.4494 C   0  0  0  0  0  0  0  0  0  0  0  0
   17.2184  138.6949   45.8860 C   0  0  0  0  0  0  0  0  0  0  0  0
   16.7307  137.4120   45.6483 C   0  0  0  0  0  0  0  0  0  0  0  0
    9.9317  139.9404   45.6587 H   0  0  0  0  0  0  0  0  0  0  0  0
    7.7111  138.3376   45.0267 H   0  0  0  0  0  0  0  0  0  0  0  0
    8.0564  139.1201   46.5617 H   0  0  0  0  0  0  0  0  0  0  0  0
    8.5442  136.7478   46.7996 H   0  0  0  0  0  0  0  0  0  0  0  0
   10.0913  137.5808   46.7745 H   0  0  0  0  0  0  0  0  0  0  0  0
   10.1713  134.8450   44.2617 H   0  0  0  0  0  0  0  0  0  0  0  0
    9.3796  134.6685   45.8103 H   0  0  0  0  0  0  0  0  0  0  0  0
   12.9173  134.7597   48.6185 H   0  0  0  0  0  0  0  0  0  0  0  0
   12.2536  135.8090   44.0577 H   0  0  0  0  0  0  0  0  0  0  0  0
   14.6932  135.7818   43.6521 H   0  0  0  0  0  0  0  0  0  0  0  0
   15.7526  135.0821   44.8252 H   0  0  0  0  0  0  0  0  0  0  0  0
   13.8690  138.2316   44.0068 H   0  0  0  0  0  0  0  0  0  0  0  0
   14.7320  140.5037   44.4394 H   0  0  0  0  0  0  0  0  0  0  0  0
   16.8756  140.7943   45.6332 H   0  0  0  0  0  0  0  0  0  0  0  0
   18.1561  138.8351   46.4018 H   0  0  0  0  0  0  0  0  0  0  0  0
   17.2935  136.5568   45.9918 H   0  0  0  0  0  0  0  0  0  0  0  0
  1  2  1  0
  1 21  1  0
  2  3  1  0
  2 22  1  0
  2 23  1  0
  3  4  1  0
  3 24  1  0
  3 25  1  0
  4  5  1  0
  5  6  1  0
  5 26  1  0
  5 27  1  0
  6  7  1  0
  6 12  1  0
  7  8  2  0
  7  9  1  0
  9 10  1  0
  9 28  1  0
 10 11  2  0
 10 13  1  0
 12 13  2  0
 12 29  1  0
 13 14  1  0
 14 15  1  0
 14 30  1  0
 14 31  1  0
 15 16  2  0
 15 20  1  0
 16 17  1  0
 16 32  1  0
 17 18  2  0
 17 33  1  0
 18 19  1  0
 18 34  1  0
 19 20  2  0
 19 35  1  0
 20 36  1  0
M  END
$$$$
