7OMX - prepared_ligand
     RDKit          3D

 72 76  0  0  1  0  0  0  0  0999 V2000
    9.7054  -15.8420   -8.8051 P   0  0  2  0  0  0  0  0  0  0  0  0
    8.2338  -16.1847   -8.8451 O   0  0  0  0  0  0  0  0  0  0  0  0
   10.7310  -16.5437   -9.6600 O   0  0  0  0  0  0  0  0  0  0  0  0
   10.2249  -15.8895   -7.1592 O   0  0  0  0  0  0  0  0  0  0  0  0
   11.6095  -15.7300   -6.8800 C   0  0  0  0  0  0  0  0  0  0  0  0
   11.7473  -14.8174   -5.6481 C   0  0  1  0  0  0  0  0  0  0  0  0
   13.0236  -14.9991   -5.0418 O   0  0  0  0  0  0  0  0  0  0  0  0
   11.6655  -13.3080   -5.9378 C   0  0  1  0  0  0  0  0  0  0  0  0
   10.7379  -12.6791   -5.0709 O   0  0  0  0  0  0  0  0  0  0  0  0
   13.1061  -12.8067   -5.7717 C   0  0  1  0  0  0  0  0  0  0  0  0
   13.3015  -11.4658   -5.3628 O   0  0  0  0  0  0  0  0  0  0  0  0
   13.5417  -13.7615   -4.6795 C   0  0  2  0  0  0  0  0  0  0  0  0
   15.0141  -13.8495   -4.3509 N   0  0  0  0  0  0  0  0  0  0  0  0
   16.0719  -13.7753   -5.1814 C   0  0  0  0  0  0  0  0  0  0  0  0
   17.2226  -13.9353   -4.5781 N   0  0  0  0  0  0  0  0  0  0  0  0
   16.9061  -14.0927   -3.2854 C   0  0  0  0  0  0  0  0  0  0  0  0
   17.7040  -14.3228   -2.1405 C   0  0  0  0  0  0  0  0  0  0  0  0
   19.0885  -14.4549   -2.1825 N   0  0  0  0  0  0  0  0  0  0  0  0
   17.0816  -14.4378   -0.9372 N   0  0  0  0  0  0  0  0  0  0  0  0
   15.7477  -14.3318   -0.9033 C   0  0  0  0  0  0  0  0  0  0  0  0
   14.8900  -14.1377   -1.9153 N   0  0  0  0  0  0  0  0  0  0  0  0
   15.5378  -14.0213   -3.1004 C   0  0  0  0  0  0  0  0  0  0  0  0
    9.8846  -14.1783   -9.0924 O   0  0  0  0  0  0  0  0  0  0  0  0
    9.1348  -12.6763   -8.8549 P   0  0  1  0  0  0  0  0  0  0  0  0
    8.0908  -12.8538   -7.7774 O   0  0  0  0  0  0  0  0  0  0  0  0
   10.2432  -11.6546   -8.7751 O   0  0  0  0  0  0  0  0  0  0  0  0
    8.3706  -12.4378  -10.3728 O   0  0  0  0  0  0  0  0  0  0  0  0
    7.2433  -13.2157  -10.7065 C   0  0  0  0  0  0  0  0  0  0  0  0
    7.2554  -13.4835  -12.2268 C   0  0  1  0  0  0  0  0  0  0  0  0
    7.3889  -12.1993  -13.0852 C   0  0  0  0  0  0  0  0  0  0  0  0
    8.4048  -14.4109  -12.6783 C   0  0  1  0  0  0  0  0  0  0  0  0
    8.0319  -15.2210  -13.7831 O   0  0  0  0  0  0  0  0  0  0  0  0
    9.5212  -13.4266  -13.0786 C   0  0  1  0  0  0  0  0  0  0  0  0
   10.5516  -13.9962  -13.8573 O   0  0  0  0  0  0  0  0  0  0  0  0
    8.7867  -12.2468  -13.7478 C   0  0  2  0  0  0  0  0  0  0  0  0
    9.5398  -10.9550  -13.7352 N   0  0  0  0  0  0  0  0  0  0  0  0
    9.8860  -10.3743  -12.5553 C   0  0  0  0  0  0  0  0  0  0  0  0
   10.5945   -9.1597  -12.5238 C   0  0  0  0  0  0  0  0  0  0  0  0
   10.9625   -8.4751  -11.2282 C   0  0  0  0  0  0  0  0  0  0  0  0
   11.3067   -7.2980  -11.2103 O   0  0  0  0  0  0  0  0  0  0  0  0
   10.9158   -9.1851  -10.0994 N   0  0  0  0  0  0  0  0  0  0  0  0
   10.9436   -8.5703  -13.7470 C   0  0  0  0  0  0  0  0  0  0  0  0
   10.5864   -9.1848  -14.9472 C   0  0  0  0  0  0  0  0  0  0  0  0
    9.8740  -10.3836  -14.9190 C   0  0  0  0  0  0  0  0  0  0  0  0
   12.1657  -15.3192   -7.7244 H   0  0  0  0  0  0  0  0  0  0  0  0
   12.0213  -16.7184   -6.6750 H   0  0  0  0  0  0  0  0  0  0  0  0
   11.0009  -15.1146   -4.9094 H   0  0  0  0  0  0  0  0  0  0  0  0
   11.3419  -13.1307   -6.9605 H   0  0  0  0  0  0  0  0  0  0  0  0
   10.6668  -11.7552   -5.3380 H   0  0  0  0  0  0  0  0  0  0  0  0
   13.6868  -13.0269   -6.6690 H   0  0  0  0  0  0  0  0  0  0  0  0
   13.2416  -10.8957   -6.1366 H   0  0  0  0  0  0  0  0  0  0  0  0
   13.0525  -13.4851   -3.7399 H   0  0  0  0  0  0  0  0  0  0  0  0
   15.9335  -13.6262   -6.2418 H   0  0  0  0  0  0  0  0  0  0  0  0
   19.5818  -14.5657   -1.3079 H   0  0  0  0  0  0  0  0  0  0  0  0
   19.5831  -14.1774   -3.0192 H   0  0  0  0  0  0  0  0  0  0  0  0
   15.2992  -14.4185    0.0752 H   0  0  0  0  0  0  0  0  0  0  0  0
    6.3451  -12.6721  -10.4169 H   0  0  0  0  0  0  0  0  0  0  0  0
    7.2408  -14.1573  -10.1616 H   0  0  0  0  0  0  0  0  0  0  0  0
    6.3029  -13.9613  -12.4630 H   0  0  0  0  0  0  0  0  0  0  0  0
    7.2608  -11.3099  -12.4706 H   0  0  0  0  0  0  0  0  0  0  0  0
    6.6051  -12.1532  -13.8434 H   0  0  0  0  0  0  0  0  0  0  0  0
    8.7449  -15.0465  -11.8581 H   0  0  0  0  0  0  0  0  0  0  0  0
    8.6929  -15.9157  -13.8838 H   0  0  0  0  0  0  0  0  0  0  0  0
   10.0002  -13.0644  -12.1687 H   0  0  0  0  0  0  0  0  0  0  0  0
   10.2961  -13.9698  -14.7855 H   0  0  0  0  0  0  0  0  0  0  0  0
    8.6140  -12.5345  -14.7886 H   0  0  0  0  0  0  0  0  0  0  0  0
    9.5726  -10.8930  -11.6655 H   0  0  0  0  0  0  0  0  0  0  0  0
   11.1535   -8.7363   -9.2253 H   0  0  0  0  0  0  0  0  0  0  0  0
   10.6498  -10.1611  -10.0847 H   0  0  0  0  0  0  0  0  0  0  0  0
   11.4896   -7.6378  -13.7813 H   0  0  0  0  0  0  0  0  0  0  0  0
   10.8635   -8.7368  -15.8905 H   0  0  0  0  0  0  0  0  0  0  0  0
    9.5706  -10.8973  -15.8205 H   0  0  0  0  0  0  0  0  0  0  0  0
  1  2  1  1
  1  3  2  0
  1  4  1  0
  1 23  1  0
  4  5  1  0
  5  6  1  0
  5 45  1  0
  5 46  1  0
  6  7  1  0
  6  8  1  0
  6 47  1  1
  7 12  1  0
  8  9  1  0
  8 10  1  0
  8 48  1  6
  9 49  1  0
 10 11  1  0
 10 12  1  0
 10 50  1  6
 11 51  1  0
 12 13  1  0
 12 52  1  1
 13 14  1  0
 13 22  1  0
 14 15  2  0
 14 53  1  0
 15 16  1  0
 16 17  1  0
 16 22  2  0
 17 18  1  0
 17 19  2  0
 18 54  1  0
 18 55  1  0
 19 20  1  0
 20 21  2  0
 20 56  1  0
 21 22  1  0
 23 24  1  0
 24 25  2  0
 24 26  1  1
 24 27  1  0
 27 28  1  0
 28 29  1  0
 28 57  1  0
 28 58  1  0
 29 30  1  0
 29 31  1  0
 29 59  1  6
 30 35  1  0
 30 60  1  0
 30 61  1  0
 31 32  1  0
 31 33  1  0
 31 62  1  1
 32 63  1  0
 33 34  1  0
 33 35  1  0
 33 64  1  1
 34 65  1  0
 35 36  1  0
 35 66  1  6
 36 37  2  0
 36 44  1  0
 37 38  1  0
 37 67  1  0
 38 39  1  0
 38 42  2  0
 39 40  2  0
 39 41  1  0
 41 68  1  0
 41 69  1  0
 42 43  1  0
 42 70  1  0
 43 44  2  0
 43 71  1  0
 44 72  1  0
M  CHG  3   2  -1  26  -1  36   1
M  END
$$$$
