2BM2 - prepared_ligand4
     RDKit          3D

 60 63  0  0  1  0  0  0  0  0999 V2000
   28.3591  113.2064   95.1110 C   0  0  0  0  0  0  0  0  0  0  0  0
   28.3377  113.9069   96.3201 C   0  0  0  0  0  0  0  0  0  0  0  0
   27.1757  113.1011   94.3678 C   0  0  0  0  0  0  0  0  0  0  0  0
   27.1499  114.4556   96.8064 C   0  0  0  0  0  0  0  0  0  0  0  0
   25.9944  113.6811   94.8314 C   0  0  0  0  0  0  0  0  0  0  0  0
   25.9826  114.3566   96.0493 C   0  0  0  0  0  0  0  0  0  0  0  0
   27.1407  115.1440   98.1538 C   0  0  0  0  0  0  0  0  0  0  0  0
   27.3239  114.1499   99.2952 N   0  0  0  0  0  0  0  0  0  0  0  0
   30.5037  113.5734   93.7854 C   0  0  0  0  0  0  0  0  0  0  0  0
   31.8078  112.9417   93.2411 C   0  0  0  0  0  0  0  0  0  0  0  0
   33.7229  112.7733   94.8773 C   0  0  0  0  0  0  0  0  0  0  0  0
   34.1447  112.4036   95.9761 O   0  0  0  0  0  0  0  0  0  0  0  0
   29.6540  112.5740   94.5966 C   0  0  0  0  0  0  0  0  0  0  0  0
   32.5422  112.3149   94.3640 N   0  0  0  0  0  0  0  0  0  0  0  0
   31.7853  111.2670   95.0846 C   0  0  0  0  0  0  0  0  0  0  0  0
   30.5223  111.9092   95.6936 C   0  0  0  0  0  0  0  0  0  0  0  0
   34.5848  113.7348   94.0836 C   0  0  0  0  0  0  0  0  0  0  0  0
   35.2742  114.7741   94.7309 C   0  0  0  0  0  0  0  0  0  0  0  0
   34.8150  113.5711   92.7096 C   0  0  0  0  0  0  0  0  0  0  0  0
   36.1184  115.6225   94.0023 C   0  0  0  0  0  0  0  0  0  0  0  0
   35.6138  114.3902   91.9796 N   0  0  0  0  0  0  0  0  0  0  0  0
   36.8732  116.7627   94.6786 C   0  0  0  0  0  0  0  0  0  0  0  0
   36.2422  115.4015   92.6284 C   0  0  0  0  0  0  0  0  0  0  0  0
   38.4128  116.6279   94.6406 C   0  0  0  0  0  0  0  0  0  0  0  0
   38.9538  115.4604   95.4556 C   0  0  0  0  0  0  0  0  0  0  0  0
   39.1694  115.6162   96.8254 C   0  0  0  0  0  0  0  0  0  0  0  0
   39.2344  114.2384   94.8384 C   0  0  0  0  0  0  0  0  0  0  0  0
   39.6401  114.5472   97.5829 C   0  0  0  0  0  0  0  0  0  0  0  0
   39.7120  113.1710   95.5944 C   0  0  0  0  0  0  0  0  0  0  0  0
   39.9021  113.3268   96.9660 C   0  0  0  0  0  0  0  0  0  0  0  0
   29.2396  114.0187   96.9035 H   0  0  0  0  0  0  0  0  0  0  0  0
   27.1675  112.5730   93.4245 H   0  0  0  0  0  0  0  0  0  0  0  0
   25.0848  113.5971   94.2544 H   0  0  0  0  0  0  0  0  0  0  0  0
   25.0683  114.7997   96.4071 H   0  0  0  0  0  0  0  0  0  0  0  0
   26.2038  115.6527   98.3801 H   0  0  0  0  0  0  0  0  0  0  0  0
   27.9765  115.8302   98.2750 H   0  0  0  0  0  0  0  0  0  0  0  0
   27.2992  114.6209  100.1920 H   0  0  0  0  0  0  0  0  0  0  0  0
   26.5849  113.4592   99.2898 H   0  0  0  0  0  0  0  0  0  0  0  0
   28.2153  113.6780   99.2110 H   0  0  0  0  0  0  0  0  0  0  0  0
   29.9351  113.9268   92.9247 H   0  0  0  0  0  0  0  0  0  0  0  0
   30.7546  114.4474   94.3871 H   0  0  0  0  0  0  0  0  0  0  0  0
   32.3790  113.6750   92.6784 H   0  0  0  0  0  0  0  0  0  0  0  0
   31.5637  112.1436   92.5381 H   0  0  0  0  0  0  0  0  0  0  0  0
   29.3314  111.7808   93.9190 H   0  0  0  0  0  0  0  0  0  0  0  0
   32.3860  110.7040   95.8016 H   0  0  0  0  0  0  0  0  0  0  0  0
   31.4915  110.5275   94.3387 H   0  0  0  0  0  0  0  0  0  0  0  0
   29.9579  111.1296   96.2021 H   0  0  0  0  0  0  0  0  0  0  0  0
   30.8384  112.6186   96.4575 H   0  0  0  0  0  0  0  0  0  0  0  0
   35.1573  114.9244   95.7950 H   0  0  0  0  0  0  0  0  0  0  0  0
   34.3654  112.7571   92.1589 H   0  0  0  0  0  0  0  0  0  0  0  0
   36.5400  116.8654   95.7122 H   0  0  0  0  0  0  0  0  0  0  0  0
   36.5815  117.6925   94.1897 H   0  0  0  0  0  0  0  0  0  0  0  0
   36.8657  116.0406   92.0203 H   0  0  0  0  0  0  0  0  0  0  0  0
   38.8690  117.5468   95.0122 H   0  0  0  0  0  0  0  0  0  0  0  0
   38.7630  116.5471   93.6117 H   0  0  0  0  0  0  0  0  0  0  0  0
   38.9717  116.5646   97.3014 H   0  0  0  0  0  0  0  0  0  0  0  0
   39.0677  114.1129   93.7790 H   0  0  0  0  0  0  0  0  0  0  0  0
   39.7970  114.6660   98.6448 H   0  0  0  0  0  0  0  0  0  0  0  0
   39.9197  112.2220   95.1225 H   0  0  0  0  0  0  0  0  0  0  0  0
   40.2546  112.4940   97.5568 H   0  0  0  0  0  0  0  0  0  0  0  0
  1  2  2  0
  1  3  1  0
  1 13  1  0
  2  4  1  0
  2 31  1  0
  3  5  2  0
  3 32  1  0
  4  6  2  0
  4  7  1  0
  5  6  1  0
  5 33  1  0
  6 34  1  0
  7  8  1  0
  7 35  1  0
  7 36  1  0
  8 37  1  0
  8 38  1  0
  8 39  1  0
  9 10  1  0
  9 13  1  0
  9 40  1  0
  9 41  1  0
 10 14  1  0
 10 42  1  0
 10 43  1  0
 11 12  2  0
 11 14  1  0
 11 17  1  0
 13 16  1  0
 13 44  1  0
 14 15  1  0
 15 16  1  0
 15 45  1  0
 15 46  1  0
 16 47  1  0
 16 48  1  0
 17 18  2  0
 17 19  1  0
 18 20  1  0
 18 49  1  0
 19 21  2  0
 19 50  1  0
 20 22  1  0
 20 23  2  0
 21 23  1  0
 22 24  1  0
 22 51  1  0
 22 52  1  0
 23 53  1  0
 24 25  1  0
 24 54  1  0
 24 55  1  0
 25 26  2  0
 25 27  1  0
 26 28  1  0
 26 56  1  0
 27 29  2  0
 27 57  1  0
 28 30  2  0
 28 58  1  0
 29 30  1  0
 29 59  1  0
 30 60  1  0
M  CHG  1   8   1
M  END
$$$$
