3EHY_ligand
     RDKit          3D

 17 17  0  0  1  0  0  0  0  0999 V2000
   -0.6596   -6.8946   -4.1228 O   0  0  0  0  0  0  0  0  0  0  0  0
   -0.6211   -5.7149   -4.9944 S   0  0  0  0  0  0  0  0  0  0  0  0
    0.5021   -5.4944   -5.9089 O   0  0  0  0  0  0  0  0  0  0  0  0
   -0.7544   -4.2974   -3.9585 N   0  0  0  0  0  0  0  0  0  0  0  0
   -0.4766   -2.9382   -4.4866 C   0  0  2  0  0  0  0  0  0  0  0  0
    0.4818   -2.1553   -3.5903 C   0  0  0  0  0  0  0  0  0  0  0  0
   -1.7934   -2.1477   -4.6408 C   0  0  0  0  0  0  0  0  0  0  0  0
   -1.8397   -1.3053   -5.5594 O   0  0  0  0  0  0  0  0  0  0  0  0
   -2.7667   -2.3264   -3.8731 O   0  0  0  0  0  0  0  0  0  0  0  0
   -2.1160   -5.7728   -5.9836 C   0  0  0  0  0  0  0  0  0  0  0  0
   -3.3518   -5.7238   -5.3444 C   0  0  0  0  0  0  0  0  0  0  0  0
   -4.5212   -5.8517   -6.0851 C   0  0  0  0  0  0  0  0  0  0  0  0
   -4.4723   -6.0357   -7.4665 C   0  0  0  0  0  0  0  0  0  0  0  0
   -3.2250   -6.0597   -8.1113 C   0  0  0  0  0  0  0  0  0  0  0  0
   -2.0520   -5.9221   -7.3711 C   0  0  0  0  0  0  0  0  0  0  0  0
   -5.6910   -6.1808   -8.0999 O   0  0  0  0  0  0  0  0  0  0  0  0
   -5.7306   -6.5264   -9.4780 C   0  0  0  0  0  0  0  0  0  0  0  0
  1  2  2  0
  2  3  2  0
  2  4  1  0
  2 10  1  0
  4  5  1  0
  5  6  1  1
  5  7  1  0
  7  8  2  0
  7  9  1  0
 10 11  2  0
 10 15  1  0
 11 12  1  0
 12 13  2  0
 13 14  1  0
 13 16  1  0
 14 15  2  0
 16 17  1  0
M  CHG  1   9  -1
M  END
$$$$
