4W9L_ligand
     RDKit          3D

 41 43  0  0  1  0  0  0  0  0999 V2000
  -36.8694   53.8231   97.5091 C   0  0  0  0  0  0  0  0  0  0  0  0
  -36.5760   55.3193   97.6254 C   0  0  0  0  0  0  0  0  0  0  0  0
  -36.1021   55.7458   98.6735 O   0  0  0  0  0  0  0  0  0  0  0  0
  -36.8475   56.1445   96.5972 N   0  0  0  0  0  0  0  0  0  0  0  0
  -37.4513   55.7762   95.3094 C   0  0  1  0  0  0  0  0  0  0  0  0
  -38.6509   56.7024   94.8870 C   0  0  0  0  0  0  0  0  0  0  0  0
  -38.2123   58.1457   94.5423 C   0  0  0  0  0  0  0  0  0  0  0  0
  -39.6839   56.7961   96.0417 C   0  0  0  0  0  0  0  0  0  0  0  0
  -39.3869   56.0945   93.6670 C   0  0  0  0  0  0  0  0  0  0  0  0
  -36.3208   55.6237   94.2657 C   0  0  0  0  0  0  0  0  0  0  0  0
  -35.5914   56.5766   93.9886 O   0  0  0  0  0  0  0  0  0  0  0  0
  -36.2041   54.3969   93.7386 N   0  0  0  0  0  0  0  0  0  0  0  0
  -35.1959   53.9402   92.7752 C   0  0  1  0  0  0  0  0  0  0  0  0
  -34.8884   52.4033   92.9878 C   0  0  0  0  0  0  0  0  0  0  0  0
  -33.8931   51.8226   91.9587 C   0  0  0  0  0  0  0  0  0  0  0  0
  -36.1791   51.5383   92.9392 C   0  0  0  0  0  0  0  0  0  0  0  0
  -34.2522   52.2022   94.3876 C   0  0  0  0  0  0  0  0  0  0  0  0
  -35.6737   54.3026   91.3382 C   0  0  0  0  0  0  0  0  0  0  0  0
  -36.8732   54.1576   91.0887 O   0  0  0  0  0  0  0  0  0  0  0  0
  -34.7746   54.6892   90.3913 N   0  0  0  0  0  0  0  0  0  0  0  0
  -33.3513   54.9773   90.6281 C   0  0  0  0  0  0  0  0  0  0  0  0
  -32.9216   55.8093   89.4141 C   0  0  2  0  0  0  0  0  0  0  0  0
  -33.3016   57.1613   89.5682 O   0  0  0  0  0  0  0  0  0  0  0  0
  -33.7474   55.2030   88.2975 C   0  0  0  0  0  0  0  0  0  0  0  0
  -35.0974   54.8394   88.9503 C   0  0  1  0  0  0  0  0  0  0  0  0
  -35.6601   53.5760   88.2589 C   0  0  0  0  0  0  0  0  0  0  0  0
  -35.2134   52.4603   88.5315 O   0  0  0  0  0  0  0  0  0  0  0  0
  -36.5388   53.7899   87.2673 N   0  0  0  0  0  0  0  0  0  0  0  0
  -36.9679   52.7742   86.3056 C   0  0  0  0  0  0  0  0  0  0  0  0
  -35.9828   52.5000   85.1635 C   0  0  0  0  0  0  0  0  0  0  0  0
  -34.9799   53.4156   84.8193 C   0  0  0  0  0  0  0  0  0  0  0  0
  -34.1299   53.1562   83.7502 C   0  0  0  0  0  0  0  0  0  0  0  0
  -36.0871   51.3018   84.4542 C   0  0  0  0  0  0  0  0  0  0  0  0
  -35.2377   51.0453   83.3808 C   0  0  0  0  0  0  0  0  0  0  0  0
  -34.2702   51.9812   83.0051 C   0  0  0  0  0  0  0  0  0  0  0  0
  -33.4222   51.7413   81.7967 C   0  0  0  0  0  0  0  0  0  0  0  0
  -31.7624   52.2894   81.7423 S   0  0  0  0  0  0  0  0  0  0  0  0
  -31.6641   51.7101   80.1238 C   0  0  0  0  0  0  0  0  0  0  0  0
  -32.7422   51.1318   79.6775 N   0  0  0  0  0  0  0  0  0  0  0  0
  -33.7200   51.1389   80.5636 C   0  0  0  0  0  0  0  0  0  0  0  0
  -35.0210   50.5241   80.0914 C   0  0  0  0  0  0  0  0  0  0  0  0
  1  2  1  0
  2  3  2  0
  2  4  1  0
  5  4  1  1
  5  6  1  0
  5 10  1  0
  6  7  1  0
  6  8  1  0
  6  9  1  0
 10 11  2  0
 10 12  1  0
 13 12  1  1
 13 14  1  0
 13 18  1  0
 14 15  1  0
 14 16  1  0
 14 17  1  0
 18 19  2  0
 18 20  1  0
 20 21  1  0
 20 25  1  0
 21 22  1  0
 22 23  1  1
 22 24  1  0
 24 25  1  0
 25 26  1  6
 26 27  2  0
 26 28  1  0
 28 29  1  0
 29 30  1  0
 30 31  2  0
 30 33  1  0
 31 32  1  0
 32 35  2  0
 33 34  2  0
 34 35  1  0
 35 36  1  0
 36 37  1  0
 36 40  2  0
 37 38  1  0
 38 39  2  0
 39 40  1  0
 40 41  1  0
M  END
$$$$
