5ABA_ligand
     RDKit          3D

 23 25  0  0  1  0  0  0  0  0999 V2000
  126.1034  111.3497  -44.0845 N   0  0  0  0  0  0  0  0  0  0  0  0
  125.4650  112.7089  -44.4512 C   0  0  0  0  0  0  0  0  0  0  0  0
  124.2990  102.7283  -45.0153 C   0  0  0  0  0  0  0  0  0  0  0  0
  123.7977  105.0355  -44.4423 C   0  0  0  0  0  0  0  0  0  0  0  0
  123.9367  107.5563  -44.4139 N   0  0  0  0  0  0  0  0  0  0  0  0
  124.1765  105.7812  -42.1818 O   0  0  0  0  0  0  0  0  0  0  0  0
  124.7324  102.4933  -43.7130 C   0  0  0  0  0  0  0  0  0  0  0  0
  123.1879  106.3779  -44.8677 C   0  0  0  0  0  0  0  0  0  0  0  0
  125.2460  107.6615  -45.0706 C   0  0  0  0  0  0  0  0  0  0  0  0
  123.8413  103.9957  -45.3789 C   0  0  0  0  0  0  0  0  0  0  0  0
  126.4616  111.1973  -42.5798 C   0  0  0  0  0  0  0  0  0  0  0  0
  124.7033  103.5184  -42.7697 C   0  0  0  0  0  0  0  0  0  0  0  0
  126.4531  112.5517  -41.8392 C   0  0  0  0  0  0  0  0  0  0  0  0
  127.0738  113.6934  -42.6652 C   0  0  0  0  0  0  0  0  0  0  0  0
  127.0068  114.9136  -41.9556 O   0  0  0  0  0  0  0  0  0  0  0  0
  126.4479  113.8347  -44.0766 C   0  0  0  0  0  0  0  0  0  0  0  0
  124.2359  104.7898  -43.1274 C   0  0  0  0  0  0  0  0  0  0  0  0
  125.2865  110.1651  -44.6737 C   0  0  0  0  0  0  0  0  0  0  0  0
  123.8632  110.0409  -44.0776 C   0  0  0  0  0  0  0  0  0  0  0  0
  123.1334  108.7778  -44.5858 C   0  0  0  0  0  0  0  0  0  0  0  0
  124.3008  101.4393  -46.1637 Cl  0  0  0  0  0  0  0  0  0  0  0  0
  125.2810  103.1425  -40.9945 Br  0  0  0  0  0  0  0  0  0  0  0  0
  126.0523  108.8406  -44.5079 C   0  0  0  0  0  0  0  0  0  0  0  0
  1  2  1  0
  1 11  1  0
  1 18  1  0
  2 16  1  0
  3  7  2  0
  3 10  1  0
  3 21  1  0
  4  8  1  0
  4 10  2  0
  4 17  1  0
  5  8  1  0
  5  9  1  0
  5 20  1  0
  6 17  1  0
  7 12  1  0
  9 23  1  0
 11 13  1  0
 12 17  2  0
 12 22  1  0
 13 14  1  0
 14 15  1  0
 14 16  1  0
 18 19  1  0
 18 23  1  0
 19 20  1  0
M  CHG  1   1   1
M  END
$$$$
