7AN5 - prepared_ligand2
     RDKit          3D

 21 21  0  0  1  0  0  0  0  0999 V2000
   13.1179   18.3735    9.3289 C   0  0  0  0  0  0  0  0  0  0  0  0
   14.0531   18.2604   10.2925 C   0  0  0  0  0  0  0  0  0  0  0  0
   16.2711   17.3571   10.2689 C   0  0  0  0  0  0  0  0  0  0  0  0
   16.0351   16.0019   10.0251 C   0  0  0  0  0  0  0  0  0  0  0  0
   17.0226   15.0648   10.3236 C   0  0  0  0  0  0  0  0  0  0  0  0
   18.2519   15.4789   10.8367 C   0  0  0  0  0  0  0  0  0  0  0  0
   18.5259   16.8419   11.0670 C   0  0  0  0  0  0  0  0  0  0  0  0
   19.8698   17.3097   11.5753 C   0  0  0  0  0  0  0  0  0  0  0  0
   17.5005   17.7606   10.7842 C   0  0  0  0  0  0  0  0  0  0  0  0
   13.7095   18.0988   11.8281 C   0  0  0  0  0  0  0  0  0  0  0  0
   15.3696   18.3501    9.9526 O   0  0  0  0  0  0  0  0  0  0  0  0
   20.7072   16.4635   11.9568 O   0  0  0  0  0  0  0  0  0  0  0  0
   20.1268   18.5346   11.5874 O   0  0  0  0  0  0  0  0  0  0  0  0
   12.5053   17.9116   12.1136 O   0  0  0  0  0  0  0  0  0  0  0  0
   14.6663   18.1856   12.6248 O   0  0  0  0  0  0  0  0  0  0  0  0
   13.4104   18.5188    8.2999 H   0  0  0  0  0  0  0  0  0  0  0  0
   12.0600   18.3317    9.5414 H   0  0  0  0  0  0  0  0  0  0  0  0
   15.0940   15.6788    9.6070 H   0  0  0  0  0  0  0  0  0  0  0  0
   16.8405   14.0152   10.1450 H   0  0  0  0  0  0  0  0  0  0  0  0
   18.9967   14.7229   11.0364 H   0  0  0  0  0  0  0  0  0  0  0  0
   17.6449   18.8185   10.9435 H   0  0  0  0  0  0  0  0  0  0  0  0
  1  2  2  0
  1 16  1  0
  1 17  1  0
  2 10  1  0
  2 11  1  0
  3  4  2  0
  3  9  1  0
  3 11  1  0
  4  5  1  0
  4 18  1  0
  5  6  2  0
  5 19  1  0
  6  7  1  0
  6 20  1  0
  7  8  1  0
  7  9  2  0
  8 12  1  0
  8 13  2  0
  9 21  1  0
 10 14  2  0
 10 15  1  0
M  CHG  2  12  -1  15  -1
M  END
$$$$
