7R9N - prepared_ligand2
     RDKit          3D

 58 62  0  0  1  0  0  0  0  0999 V2000
  -39.8829 -115.0640  226.3412 C   0  0  0  0  0  0  0  0  0  0  0  0
  -39.5785 -114.9786  224.9771 C   0  0  0  0  0  0  0  0  0  0  0  0
  -39.9246 -116.0911  224.1895 C   0  0  0  0  0  0  0  0  0  0  0  0
  -40.4953 -116.2102  226.8939 C   0  0  0  0  0  0  0  0  0  0  0  0
  -40.1971 -114.7171  228.5549 N   0  0  0  0  0  0  0  0  0  0  0  0
  -39.4128 -115.5512  220.4859 C   0  0  0  0  0  0  0  0  0  0  0  0
  -37.2756 -110.8888  220.8781 C   0  0  0  0  0  0  0  0  0  0  0  0
  -36.8933 -109.7302  221.8028 C   0  0  0  0  0  0  0  0  0  0  0  0
  -37.3956 -111.6679  223.1056 C   0  0  0  0  0  0  0  0  0  0  0  0
  -37.8653 -115.0224  217.2624 C   0  0  0  0  0  0  0  0  0  0  0  0
  -38.0349 -112.6288  228.3272 C   0  0  0  0  0  0  0  0  0  0  0  0
  -39.2295 -112.8041  227.3689 C   0  0  0  0  0  0  0  0  0  0  0  0
  -40.3767 -111.8160  227.6610 C   0  0  0  0  0  0  0  0  0  0  0  0
  -39.7311 -114.1844  227.4010 N   0  0  0  0  0  0  0  0  0  0  0  0
  -40.5091 -117.2002  224.7020 N   0  0  0  0  0  0  0  0  0  0  0  0
  -40.8019 -117.2600  226.0226 C   0  0  0  0  0  0  0  0  0  0  0  0
  -40.6400 -115.9167  228.2799 C   0  0  0  0  0  0  0  0  0  0  0  0
  -39.7489 -116.1449  222.7962 N   0  0  0  0  0  0  0  0  0  0  0  0
  -39.2774 -115.2348  221.8403 C   0  0  0  0  0  0  0  0  0  0  0  0
  -38.9940 -114.5932  219.5551 C   0  0  0  0  0  0  0  0  0  0  0  0
  -38.4392 -113.4094  219.9369 N   0  0  0  0  0  0  0  0  0  0  0  0
  -38.3155 -113.1967  221.2746 C   0  0  0  0  0  0  0  0  0  0  0  0
  -38.7196 -114.0638  222.2344 N   0  0  0  0  0  0  0  0  0  0  0  0
  -37.7250 -112.0034  221.7150 N   0  0  0  0  0  0  0  0  0  0  0  0
  -36.4961 -110.4371  223.0825 C   0  0  0  0  0  0  0  0  0  0  0  0
  -36.6741 -109.6677  224.1551 F   0  0  0  0  0  0  0  0  0  0  0  0
  -35.2187 -110.8120  223.0269 F   0  0  0  0  0  0  0  0  0  0  0  0
  -39.1553 -114.8233  218.0543 C   0  0  1  0  0  0  0  0  0  0  0  0
  -38.2568 -114.8260  215.7980 C   0  0  0  0  0  0  0  0  0  0  0  0
  -39.4246 -113.8276  215.8281 N   0  0  0  0  0  0  0  0  0  0  0  0
  -39.9161 -113.7356  217.2808 C   0  0  0  0  0  0  0  0  0  0  0  0
  -39.1201 -114.0891  224.5856 H   0  0  0  0  0  0  0  0  0  0  0  0
  -39.8564 -116.4838  220.1680 H   0  0  0  0  0  0  0  0  0  0  0  0
  -36.4449 -111.1866  220.2404 H   0  0  0  0  0  0  0  0  0  0  0  0
  -38.1009 -110.5813  220.2345 H   0  0  0  0  0  0  0  0  0  0  0  0
  -37.7378 -109.0574  221.9617 H   0  0  0  0  0  0  0  0  0  0  0  0
  -36.0818 -109.1253  221.3975 H   0  0  0  0  0  0  0  0  0  0  0  0
  -36.8574 -112.4965  223.5652 H   0  0  0  0  0  0  0  0  0  0  0  0
  -38.3027 -111.4763  223.6782 H   0  0  0  0  0  0  0  0  0  0  0  0
  -37.3946 -115.9820  217.4805 H   0  0  0  0  0  0  0  0  0  0  0  0
  -37.1243 -114.2759  217.5553 H   0  0  0  0  0  0  0  0  0  0  0  0
  -37.2386 -113.3411  228.1052 H   0  0  0  0  0  0  0  0  0  0  0  0
  -37.6103 -111.6281  228.2413 H   0  0  0  0  0  0  0  0  0  0  0  0
  -38.3229 -112.7688  229.3680 H   0  0  0  0  0  0  0  0  0  0  0  0
  -38.8675 -112.6091  226.3585 H   0  0  0  0  0  0  0  0  0  0  0  0
  -41.1929 -111.9430  226.9503 H   0  0  0  0  0  0  0  0  0  0  0  0
  -40.7909 -111.9500  228.6603 H   0  0  0  0  0  0  0  0  0  0  0  0
  -40.0355 -110.7836  227.5872 H   0  0  0  0  0  0  0  0  0  0  0  0
  -41.3221 -118.1398  226.3606 H   0  0  0  0  0  0  0  0  0  0  0  0
  -41.0619 -116.5436  229.0524 H   0  0  0  0  0  0  0  0  0  0  0  0
  -40.1260 -116.9892  222.3883 H   0  0  0  0  0  0  0  0  0  0  0  0
  -39.7346 -115.7452  217.9593 H   0  0  0  0  0  0  0  0  0  0  0  0
  -38.6796 -115.7319  215.3606 H   0  0  0  0  0  0  0  0  0  0  0  0
  -37.4689 -114.4216  215.1607 H   0  0  0  0  0  0  0  0  0  0  0  0
  -40.1722 -114.1334  215.2174 H   0  0  0  0  0  0  0  0  0  0  0  0
  -39.1357 -112.9170  215.4959 H   0  0  0  0  0  0  0  0  0  0  0  0
  -39.6518 -112.7289  217.6083 H   0  0  0  0  0  0  0  0  0  0  0  0
  -41.0021 -113.8269  217.3107 H   0  0  0  0  0  0  0  0  0  0  0  0
  1  2  2  0
  1  4  1  0
  1 14  1  0
  2  3  1  0
  2 32  1  0
  3 15  2  0
  3 18  1  0
  4 16  2  0
  4 17  1  0
  5 14  1  0
  5 17  2  0
  6 19  2  0
  6 20  1  0
  6 33  1  0
  7  8  1  0
  7 24  1  0
  7 34  1  0
  7 35  1  0
  8 25  1  0
  8 36  1  0
  8 37  1  0
  9 24  1  0
  9 25  1  0
  9 38  1  0
  9 39  1  0
 10 28  1  0
 10 29  1  0
 10 40  1  0
 10 41  1  0
 11 12  1  0
 11 42  1  0
 11 43  1  0
 11 44  1  0
 12 13  1  0
 12 14  1  0
 12 45  1  0
 13 46  1  0
 13 47  1  0
 13 48  1  0
 15 16  1  0
 16 49  1  0
 17 50  1  0
 18 19  1  0
 18 51  1  0
 19 23  1  0
 20 21  2  0
 20 28  1  0
 21 22  1  0
 22 23  2  0
 22 24  1  0
 25 26  1  0
 25 27  1  0
 28 31  1  0
 28 52  1  1
 29 30  1  0
 29 53  1  0
 29 54  1  0
 30 31  1  0
 30 55  1  0
 30 56  1  0
 31 57  1  0
 31 58  1  0
M  CHG  1  30   1
M  END
$$$$
