7NA4 - prepared_ligand
     RDKit          3D

 70 75  0  0  1  0  0  0  0  0999 V2000
   -3.8367   16.9036   -0.3580 C   0  0  0  0  0  0  0  0  0  0  0  0
   -4.4096   15.4828   -0.4717 C   0  0  1  0  0  0  0  0  0  0  0  0
   -4.4180   14.7430    0.8793 C   0  0  0  0  0  0  0  0  0  0  0  0
   -4.9108   13.2963    0.6837 C   0  0  0  0  0  0  0  0  0  0  0  0
   -6.3379   13.2470    0.0877 C   0  0  1  0  0  0  0  0  0  0  0  0
   -6.3468   14.0326   -1.2526 C   0  0  0  0  0  0  0  0  0  0  0  0
   -5.8363   15.4749   -1.0647 C   0  0  0  0  0  0  0  0  0  0  0  0
   -6.8465   11.7757   -0.0374 C   0  0  1  0  0  0  0  0  0  0  0  0
   -8.2596   11.1981   -2.1008 C   0  0  0  0  0  0  0  0  0  0  0  0
   -9.2883   10.4461   -4.5529 C   0  0  0  0  0  0  0  0  0  0  0  0
  -10.1823   10.9147   -3.5798 C   0  0  0  0  0  0  0  0  0  0  0  0
   -9.6484   11.3172   -2.3507 C   0  0  0  0  0  0  0  0  0  0  0  0
   -9.3782   12.0826   -0.3928 C   0  0  0  0  0  0  0  0  0  0  0  0
  -10.4824   12.0669    3.1551 C   0  0  0  0  0  0  0  0  0  0  0  0
  -10.8728   10.8225    3.9544 C   0  0  0  0  0  0  0  0  0  0  0  0
  -10.1305   15.2231    0.2747 C   0  0  0  0  0  0  0  0  0  0  0  0
  -11.1241    9.6326   -7.5106 C   0  0  0  0  0  0  0  0  0  0  0  0
   -5.9658   10.4573   -2.9846 C   0  0  0  0  0  0  0  0  0  0  0  0
   -5.0349   11.3376   -3.5478 C   0  0  0  0  0  0  0  0  0  0  0  0
   -3.6678   11.0747   -3.4303 C   0  0  0  0  0  0  0  0  0  0  0  0
   -3.2662    9.9500   -2.7107 C   0  0  0  0  0  0  0  0  0  0  0  0
   -5.4700    9.3478   -2.2881 C   0  0  0  0  0  0  0  0  0  0  0  0
   -6.9324   10.9784    1.2874 C   0  0  0  0  0  0  0  0  0  0  0  0
   -8.1095   11.6704   -0.7957 N   0  0  0  0  0  0  0  0  0  0  0  0
   -7.4224   10.6879   -3.1132 C   0  0  0  0  0  0  0  0  0  0  0  0
   -7.9497   10.3410   -4.3192 N   0  0  0  0  0  0  0  0  0  0  0  0
  -10.3066   11.8494   -1.2870 N   0  0  0  0  0  0  0  0  0  0  0  0
   -9.7194   12.7100    0.9551 C   0  0  2  0  0  0  0  0  0  0  0  0
  -10.2472   11.6911    1.8031 O   0  0  0  0  0  0  0  0  0  0  0  0
  -10.6767   13.9127    0.7917 C   0  0  0  0  0  0  0  0  0  0  0  0
  -10.5720   15.0950    1.7163 C   0  0  0  0  0  0  0  0  0  0  0  0
   -9.7561   10.0330   -5.9012 C   0  0  0  0  0  0  0  0  0  0  0  0
  -10.9613   10.0656   -6.2704 N   0  0  0  0  0  0  0  0  0  0  0  0
  -12.0750    9.4881   -8.2771 O   0  0  0  0  0  0  0  0  0  0  0  0
   -9.8977    9.3378   -7.8933 O   0  0  0  0  0  0  0  0  0  0  0  0
   -9.0270    9.6003   -6.8430 N   0  0  0  0  0  0  0  0  0  0  0  0
   -2.4973   12.0983   -4.1758 Cl  0  0  0  0  0  0  0  0  0  0  0  0
   -4.1455    9.0910   -2.1369 N   0  0  0  0  0  0  0  0  0  0  0  0
   -3.7973   17.3851   -1.3351 H   0  0  0  0  0  0  0  0  0  0  0  0
   -4.4399   17.5307    0.2955 H   0  0  0  0  0  0  0  0  0  0  0  0
   -2.8231   16.8896    0.0428 H   0  0  0  0  0  0  0  0  0  0  0  0
   -3.7675   14.9084   -1.1368 H   0  0  0  0  0  0  0  0  0  0  0  0
   -5.0339   15.2784    1.6032 H   0  0  0  0  0  0  0  0  0  0  0  0
   -3.4149   14.7393    1.3064 H   0  0  0  0  0  0  0  0  0  0  0  0
   -4.9091   12.7753    1.6339 H   0  0  0  0  0  0  0  0  0  0  0  0
   -4.2182   12.7340    0.0552 H   0  0  0  0  0  0  0  0  0  0  0  0
   -6.9706   13.8050    0.7749 H   0  0  0  0  0  0  0  0  0  0  0  0
   -7.3472   14.0466   -1.6846 H   0  0  0  0  0  0  0  0  0  0  0  0
   -5.7334   13.5148   -1.9893 H   0  0  0  0  0  0  0  0  0  0  0  0
   -5.8386   15.9867   -2.0242 H   0  0  0  0  0  0  0  0  0  0  0  0
   -6.5158   16.0524   -0.4357 H   0  0  0  0  0  0  0  0  0  0  0  0
   -6.0896   11.2529   -0.6083 H   0  0  0  0  0  0  0  0  0  0  0  0
  -11.2427   10.9954   -3.7736 H   0  0  0  0  0  0  0  0  0  0  0  0
   -9.5874   12.5127    3.5917 H   0  0  0  0  0  0  0  0  0  0  0  0
  -11.2851   12.8017    3.2095 H   0  0  0  0  0  0  0  0  0  0  0  0
  -11.0624   11.0744    4.9979 H   0  0  0  0  0  0  0  0  0  0  0  0
  -11.7763   10.3644    3.5518 H   0  0  0  0  0  0  0  0  0  0  0  0
  -10.0781   10.0764    3.9297 H   0  0  0  0  0  0  0  0  0  0  0  0
  -10.7400   15.8075   -0.4129 H   0  0  0  0  0  0  0  0  0  0  0  0
   -9.0662   15.2977    0.0489 H   0  0  0  0  0  0  0  0  0  0  0  0
   -5.3755   12.2132   -4.0818 H   0  0  0  0  0  0  0  0  0  0  0  0
   -2.2195    9.7157   -2.5910 H   0  0  0  0  0  0  0  0  0  0  0  0
   -6.1458    8.6408   -1.8293 H   0  0  0  0  0  0  0  0  0  0  0  0
   -7.4318   10.0195    1.1430 H   0  0  0  0  0  0  0  0  0  0  0  0
   -5.9394   10.7531    1.6771 H   0  0  0  0  0  0  0  0  0  0  0  0
   -7.4631   11.5094    2.0748 H   0  0  0  0  0  0  0  0  0  0  0  0
   -8.8224   13.0857    1.4359 H   0  0  0  0  0  0  0  0  0  0  0  0
  -11.6726   13.6154    0.4606 H   0  0  0  0  0  0  0  0  0  0  0  0
  -11.4970   15.5737    2.0305 H   0  0  0  0  0  0  0  0  0  0  0  0
   -9.8157   15.0934    2.4987 H   0  0  0  0  0  0  0  0  0  0  0  0
  1  2  1  0
  1 39  1  0
  1 40  1  0
  1 41  1  0
  2  3  1  0
  2  7  1  0
  2 42  1  6
  3  4  1  0
  3 43  1  0
  3 44  1  0
  4  5  1  0
  4 45  1  0
  4 46  1  0
  5  6  1  0
  5  8  1  0
  5 47  1  1
  6  7  1  0
  6 48  1  0
  6 49  1  0
  7 50  1  0
  7 51  1  0
  8 23  1  0
  8 24  1  0
  8 52  1  6
  9 12  2  0
  9 24  1  0
  9 25  1  0
 10 11  2  0
 10 26  1  0
 10 32  1  0
 11 12  1  0
 11 53  1  0
 12 27  1  0
 13 24  1  0
 13 27  2  0
 13 28  1  0
 14 15  1  0
 14 29  1  0
 14 54  1  0
 14 55  1  0
 15 56  1  0
 15 57  1  0
 15 58  1  0
 16 30  1  0
 16 31  1  0
 16 59  1  0
 16 60  1  0
 17 33  1  0
 17 34  2  0
 17 35  1  0
 18 19  2  0
 18 22  1  0
 18 25  1  0
 19 20  1  0
 19 61  1  0
 20 21  2  0
 20 37  1  0
 21 38  1  0
 21 62  1  0
 22 38  2  0
 22 63  1  0
 23 64  1  0
 23 65  1  0
 23 66  1  0
 25 26  2  0
 28 29  1  0
 28 30  1  0
 28 67  1  1
 30 31  1  0
 30 68  1  0
 31 69  1  0
 31 70  1  0
 32 33  1  0
 32 36  2  0
 35 36  1  0
M  CHG  1  33  -1
M  END
$$$$
