3JYA_ligand
     RDKit          3D

 16 18  0  0  1  0  0  0  0  0999 V2000
    9.1332   81.1262   -1.0863 C   0  0  0  0  0  0  0  0  0  0  0  0
    9.9460   80.9736    0.0078 N   0  0  0  0  0  0  0  0  0  0  0  0
    9.5333   80.8648   -2.2194 O   0  0  0  0  0  0  0  0  0  0  0  0
    6.4698   81.8819   -1.7252 S   0  0  0  0  0  0  0  0  0  0  0  0
    3.1979   82.6370   -1.8573 Cl  0  0  0  0  0  0  0  0  0  0  0  0
    9.6447   81.2389    1.3267 C   0  0  0  0  0  0  0  0  0  0  0  0
    8.4851   81.6853    1.6678 N   0  0  0  0  0  0  0  0  0  0  0  0
    6.2881   82.7714    3.6057 Cl  0  0  0  0  0  0  0  0  0  0  0  0
    7.5456   81.8642    0.6848 C   0  0  0  0  0  0  0  0  0  0  0  0
    7.8157   81.6023   -0.6609 C   0  0  0  0  0  0  0  0  0  0  0  0
    5.4630   82.3327   -0.3497 C   0  0  0  0  0  0  0  0  0  0  0  0
    4.1015   82.6781   -0.3899 C   0  0  0  0  0  0  0  0  0  0  0  0
    3.4665   83.0249    0.7958 C   0  0  0  0  0  0  0  0  0  0  0  0
    4.1580   83.0418    1.9976 C   0  0  0  0  0  0  0  0  0  0  0  0
    5.5074   82.6999    2.0643 C   0  0  0  0  0  0  0  0  0  0  0  0
    6.1932   82.3103    0.8865 C   0  0  0  0  0  0  0  0  0  0  0  0
  1  2  1  0
  1  3  2  0
  1 10  1  0
  2  6  1  0
  4 10  1  0
  4 11  1  0
  5 12  1  0
  6  7  2  0
  7  9  1  0
  8 15  1  0
  9 10  2  0
  9 16  1  0
 11 12  2  0
 11 16  1  0
 12 13  1  0
 13 14  2  0
 14 15  1  0
 15 16  2  0
M  END
$$$$
