7SSM - prepared_ligand
     RDKit          3D

 36 39  0  0  1  0  0  0  0  0999 V2000
  -21.2615  -24.4629    0.6343 C   0  0  0  0  0  0  0  0  0  0  0  0
  -13.8388  -17.9471   -1.0844 C   0  0  0  0  0  0  0  0  0  0  0  0
  -19.0973  -22.2141    2.8588 C   0  0  0  0  0  0  0  0  0  0  0  0
  -14.2107  -20.0855   -0.6779 C   0  0  0  0  0  0  0  0  0  0  0  0
  -11.9282  -20.6252   -0.0687 C   0  0  0  0  0  0  0  0  0  0  0  0
  -12.3461  -21.9323    0.1674 C   0  0  0  0  0  0  0  0  0  0  0  0
  -13.6926  -22.2397   -0.0360 C   0  0  0  0  0  0  0  0  0  0  0  0
  -19.7841  -22.7935    1.6526 C   0  0  0  0  0  0  0  0  0  0  0  0
  -20.6160  -23.9234    1.7471 C   0  0  0  0  0  0  0  0  0  0  0  0
  -14.8693  -18.8992   -1.1113 C   0  0  0  0  0  0  0  0  0  0  0  0
  -16.2354  -18.6305   -1.4576 C   0  0  0  0  0  0  0  0  0  0  0  0
  -16.9826  -19.7340   -1.6178 N   0  0  0  0  0  0  0  0  0  0  0  0
  -16.6562  -17.4813   -1.6020 O   0  0  0  0  0  0  0  0  0  0  0  0
  -18.4122  -19.7442   -1.9075 C   0  0  0  0  0  0  0  0  0  0  0  0
  -19.0845  -20.9625   -1.3278 C   0  0  0  0  0  0  0  0  0  0  0  0
  -18.9366  -21.1361    0.0152 O   0  0  0  0  0  0  0  0  0  0  0  0
  -19.6525  -22.2495    0.3566 C   0  0  0  0  0  0  0  0  0  0  0  0
  -20.2859  -22.7913   -0.7883 C   0  0  0  0  0  0  0  0  0  0  0  0
  -19.8853  -21.9544   -1.8735 C   0  0  0  0  0  0  0  0  0  0  0  0
  -21.1013  -23.9200   -0.6391 C   0  0  0  0  0  0  0  0  0  0  0  0
  -17.9783  -21.6703    2.6998 O   0  0  0  0  0  0  0  0  0  0  0  0
  -19.6674  -22.3142    3.9685 O   0  0  0  0  0  0  0  0  0  0  0  0
  -12.6542  -18.4128   -0.7447 N   0  0  0  0  0  0  0  0  0  0  0  0
  -12.8679  -19.7193   -0.4847 N   0  0  0  0  0  0  0  0  0  0  0  0
  -14.6243  -21.3430   -0.4550 N   0  0  0  0  0  0  0  0  0  0  0  0
  -21.8884  -25.3299    0.7593 H   0  0  0  0  0  0  0  0  0  0  0  0
  -13.9599  -16.9022   -1.3324 H   0  0  0  0  0  0  0  0  0  0  0  0
  -10.9121  -20.2833    0.0596 H   0  0  0  0  0  0  0  0  0  0  0  0
  -11.6440  -22.6877    0.4895 H   0  0  0  0  0  0  0  0  0  0  0  0
  -14.0612  -23.2390    0.1361 H   0  0  0  0  0  0  0  0  0  0  0  0
  -20.7728  -24.4025    2.7036 H   0  0  0  0  0  0  0  0  0  0  0  0
  -16.5532  -20.6307   -1.4376 H   0  0  0  0  0  0  0  0  0  0  0  0
  -18.5558  -19.6984   -2.9821 H   0  0  0  0  0  0  0  0  0  0  0  0
  -18.8930  -18.8627   -1.4875 H   0  0  0  0  0  0  0  0  0  0  0  0
  -20.1615  -22.0392   -2.9141 H   0  0  0  0  0  0  0  0  0  0  0  0
  -21.6056  -24.3575   -1.4864 H   0  0  0  0  0  0  0  0  0  0  0  0
  1  9  2  0
  1 20  1  0
  1 26  1  0
  2 10  1  0
  2 23  2  0
  2 27  1  0
  3  8  1  0
  3 21  1  0
  3 22  2  0
  4 10  2  0
  4 24  1  0
  4 25  1  0
  5  6  2  0
  5 24  1  0
  5 28  1  0
  6  7  1  0
  6 29  1  0
  7 25  2  0
  7 30  1  0
  8  9  1  0
  8 17  2  0
  9 31  1  0
 10 11  1  0
 11 12  1  0
 11 13  2  0
 12 14  1  0
 12 32  1  0
 14 15  1  0
 14 33  1  0
 14 34  1  0
 15 16  1  0
 15 19  2  0
 16 17  1  0
 17 18  1  0
 18 19  1  0
 18 20  2  0
 19 35  1  0
 20 36  1  0
 23 24  1  0
M  CHG  1  21  -1
M  END
$$$$
