4MGD_ligand
     RDKit          3D

 19 20  0  0  1  0  0  0  0  0999 V2000
  -10.3123  -11.0508   51.0441 C   0  0  0  0  0  0  0  0  0  0  0  0
   -9.6964  -10.7762   52.2581 C   0  0  0  0  0  0  0  0  0  0  0  0
  -10.4137  -10.9063   53.4415 C   0  0  0  0  0  0  0  0  0  0  0  0
   -9.8085  -10.6012   54.6287 O   0  0  0  0  0  0  0  0  0  0  0  0
  -11.7415  -11.3290   53.4223 C   0  0  0  0  0  0  0  0  0  0  0  0
  -12.3454  -11.6475   52.2083 C   0  0  0  0  0  0  0  0  0  0  0  0
  -11.6346  -11.5087   51.0070 C   0  0  0  0  0  0  0  0  0  0  0  0
  -12.2994  -11.7868   49.6463 C   0  0  0  0  0  0  0  0  0  0  0  0
  -11.8862  -13.1533   48.9875 C   0  0  0  0  0  0  0  0  0  0  0  0
  -12.6268  -13.2880   47.3688 Cl  0  0  0  0  0  0  0  0  0  0  0  0
  -10.1197  -13.2530   48.7472 Cl  0  0  0  0  0  0  0  0  0  0  0  0
  -12.3487  -14.5604   49.9876 Cl  0  0  0  0  0  0  0  0  0  0  0  0
  -13.8026  -11.4185   49.6246 C   0  0  0  0  0  0  0  0  0  0  0  0
  -14.1546  -10.0632   49.5789 C   0  0  0  0  0  0  0  0  0  0  0  0
  -15.4919   -9.6807   49.5462 C   0  0  0  0  0  0  0  0  0  0  0  0
  -16.4890  -10.6519   49.5505 C   0  0  0  0  0  0  0  0  0  0  0  0
  -17.8024  -10.2806   49.4730 O   0  0  0  0  0  0  0  0  0  0  0  0
  -16.1596  -11.9997   49.6219 C   0  0  0  0  0  0  0  0  0  0  0  0
  -14.8222  -12.3817   49.6519 C   0  0  0  0  0  0  0  0  0  0  0  0
  1  2  2  0
  1  7  1  0
  2  3  1  0
  3  4  1  0
  3  5  2  0
  5  6  1  0
  6  7  2  0
  7  8  1  0
  8  9  1  0
  8 13  1  0
  9 10  1  0
  9 11  1  0
  9 12  1  0
 13 14  2  0
 13 19  1  0
 14 15  1  0
 15 16  2  0
 16 17  1  0
 16 18  1  0
 18 19  2  0
M  END
$$$$
