6M73 - prepared_ligand1
     RDKit          3D

 52 54  0  0  1  0  0  0  0  0999 V2000
   28.0285    9.6097   36.6365 C   0  0  0  0  0  0  0  0  0  0  0  0
   28.2283    9.4338   38.0496 N   0  0  0  0  0  0  0  0  0  0  0  0
   29.5469    9.5202   38.5337 C   0  0  0  0  0  0  0  0  0  0  0  0
   29.7312    9.5426   39.8917 N   0  0  0  0  0  0  0  0  0  0  0  0
   30.9451    9.7386   40.4785 C   0  0  0  0  0  0  0  0  0  0  0  0
   31.0812    9.9057   41.6857 O   0  0  0  0  0  0  0  0  0  0  0  0
   31.9810    9.8023   39.5881 N   0  0  0  0  0  0  0  0  0  0  0  0
   31.9627    9.7333   38.2270 C   0  0  0  0  0  0  0  0  0  0  0  0
   32.9954    9.8201   37.5678 O   0  0  0  0  0  0  0  0  0  0  0  0
   30.6128    9.5820   37.6965 C   0  0  0  0  0  0  0  0  0  0  0  0
   30.4380    9.5410   36.3345 N   0  0  0  0  0  0  0  0  0  0  0  0
   29.1537    9.6121   35.7747 C   0  0  0  0  0  0  0  0  0  0  0  0
   29.0051    9.7219   34.3948 C   0  0  0  0  0  0  0  0  0  0  0  0
   27.7412    9.8962   33.8323 C   0  0  0  0  0  0  0  0  0  0  0  0
   27.6380   10.0751   32.3240 C   0  0  0  0  0  0  0  0  0  0  0  0
   26.6130    9.9440   34.6677 C   0  0  0  0  0  0  0  0  0  0  0  0
   25.2139   10.1541   34.1083 C   0  0  0  0  0  0  0  0  0  0  0  0
   26.7646    9.7792   36.0485 C   0  0  0  0  0  0  0  0  0  0  0  0
   27.0911    9.6723   38.9605 C   0  0  0  0  0  0  0  0  0  0  0  0
   26.7461   11.1642   39.2081 C   0  0  2  0  0  0  0  0  0  0  0  0
   27.7604   11.8104   39.9552 O   0  0  0  0  0  0  0  0  0  0  0  0
   25.3862   11.3735   39.9241 C   0  0  2  0  0  0  0  0  0  0  0  0
   25.3449   10.6508   41.1486 O   0  0  0  0  0  0  0  0  0  0  0  0
   24.1350   11.0257   39.0709 C   0  0  2  0  0  0  0  0  0  0  0  0
   24.2611   11.5576   37.7658 O   0  0  0  0  0  0  0  0  0  0  0  0
   22.8374   11.5713   39.6971 C   0  0  0  0  0  0  0  0  0  0  0  0
   21.6913   11.0378   39.0672 O   0  0  0  0  0  0  0  0  0  0  0  0
   20.8551   11.8602   37.7664 P   0  0  0  0  0  0  0  0  0  0  0  0
   19.5444   11.0780   37.5865 O   0  0  0  0  0  0  0  0  0  0  0  0
   21.7698   11.7694   36.5360 O   0  0  0  0  0  0  0  0  0  0  0  0
   20.6118   13.3065   38.2304 O   0  0  0  0  0  0  0  0  0  0  0  0
   28.9498    9.3775   40.5052 H   0  0  0  0  0  0  0  0  0  0  0  0
   32.8938    9.9451   39.9958 H   0  0  0  0  0  0  0  0  0  0  0  0
   31.2468    9.4638   35.7338 H   0  0  0  0  0  0  0  0  0  0  0  0
   29.8778    9.7042   33.7569 H   0  0  0  0  0  0  0  0  0  0  0  0
   26.8778   10.8107   32.0600 H   0  0  0  0  0  0  0  0  0  0  0  0
   28.5741   10.4410   31.9004 H   0  0  0  0  0  0  0  0  0  0  0  0
   27.3944    9.1284   31.8468 H   0  0  0  0  0  0  0  0  0  0  0  0
   24.4472    9.7898   34.7929 H   0  0  0  0  0  0  0  0  0  0  0  0
   25.0403   11.2125   33.9115 H   0  0  0  0  0  0  0  0  0  0  0  0
   25.0781    9.6082   33.1752 H   0  0  0  0  0  0  0  0  0  0  0  0
   25.8713    9.7992   36.6498 H   0  0  0  0  0  0  0  0  0  0  0  0
   27.2300    9.1290   39.8957 H   0  0  0  0  0  0  0  0  0  0  0  0
   26.2207    9.1616   38.5529 H   0  0  0  0  0  0  0  0  0  0  0  0
   26.7266   11.6880   38.2520 H   0  0  0  0  0  0  0  0  0  0  0  0
   28.5519   11.8651   39.4077 H   0  0  0  0  0  0  0  0  0  0  0  0
   25.3102   12.4312   40.1821 H   0  0  0  0  0  0  0  0  0  0  0  0
   24.6797   11.0552   41.7159 H   0  0  0  0  0  0  0  0  0  0  0  0
   24.0468    9.9426   38.9741 H   0  0  0  0  0  0  0  0  0  0  0  0
   23.4017   11.5031   37.3251 H   0  0  0  0  0  0  0  0  0  0  0  0
   22.8147   12.6626   39.7101 H   0  0  0  0  0  0  0  0  0  0  0  0
   22.7832   11.2573   40.7382 H   0  0  0  0  0  0  0  0  0  0  0  0
  1  2  1  0
  1 12  2  0
  1 18  1  0
  2  3  1  0
  2 19  1  0
  3  4  1  0
  3 10  2  0
  4  5  1  0
  4 32  1  0
  5  6  2  0
  5  7  1  0
  7  8  1  0
  7 33  1  0
  8  9  2  0
  8 10  1  0
 10 11  1  0
 11 12  1  0
 11 34  1  0
 12 13  1  0
 13 14  2  0
 13 35  1  0
 14 15  1  0
 14 16  1  0
 15 36  1  0
 15 37  1  0
 15 38  1  0
 16 17  1  0
 16 18  2  0
 17 39  1  0
 17 40  1  0
 17 41  1  0
 18 42  1  0
 19 20  1  0
 19 43  1  0
 19 44  1  0
 20 21  1  0
 20 22  1  0
 20 45  1  6
 21 46  1  0
 22 23  1  0
 22 24  1  0
 22 47  1  1
 23 48  1  0
 24 25  1  0
 24 26  1  0
 24 49  1  6
 25 50  1  0
 26 27  1  0
 26 51  1  0
 26 52  1  0
 27 28  1  0
 28 29  1  0
 28 30  2  0
 28 31  1  0
M  CHG  2  29  -1  31  -1
M  END
$$$$
