7P85 - prepared_ligand
     RDKit          3D

 28 28  0  0  1  0  0  0  0  0999 V2000
   17.9042  -30.9311   -1.2766 C   0  0  0  0  0  0  0  0  0  0  0  0
   19.1626  -30.3652   -1.4912 C   0  0  0  0  0  0  0  0  0  0  0  0
   20.2415  -30.7566   -0.7072 C   0  0  0  0  0  0  0  0  0  0  0  0
   20.0667  -31.7183    0.2880 C   0  0  0  0  0  0  0  0  0  0  0  0
   18.8124  -32.2896    0.4993 C   0  0  0  0  0  0  0  0  0  0  0  0
   17.7335  -31.8999   -0.2897 C   0  0  0  0  0  0  0  0  0  0  0  0
   16.7307  -30.5300   -2.1518 C   0  0  0  0  0  0  0  0  0  0  0  0
   21.2460  -32.1326    1.1452 C   0  0  0  0  0  0  0  0  0  0  0  0
   16.4538  -34.2716   -2.7334 C   0  0  0  0  0  0  0  0  0  0  0  0
   15.6235  -35.2713   -1.9311 C   0  0  0  0  0  0  0  0  0  0  0  0
   16.3931  -31.7015   -3.5561 P   0  0  2  0  0  0  0  0  0  0  0  0
   15.8345  -33.0133   -2.5952 O   0  0  0  0  0  0  0  0  0  0  0  0
   17.7065  -32.0132   -4.2351 O   0  0  0  0  0  0  0  0  0  0  0  0
   15.2122  -31.2533   -4.3766 O   0  0  0  0  0  0  0  0  0  0  0  0
   19.3125  -29.6347   -2.2707 H   0  0  0  0  0  0  0  0  0  0  0  0
   21.2163  -30.3295   -0.8872 H   0  0  0  0  0  0  0  0  0  0  0  0
   18.6766  -33.0386    1.2642 H   0  0  0  0  0  0  0  0  0  0  0  0
   16.7655  -32.3546   -0.1460 H   0  0  0  0  0  0  0  0  0  0  0  0
   16.9326  -29.5416   -2.5555 H   0  0  0  0  0  0  0  0  0  0  0  0
   15.8374  -30.4232   -1.5372 H   0  0  0  0  0  0  0  0  0  0  0  0
   20.9292  -32.4067    2.1507 H   0  0  0  0  0  0  0  0  0  0  0  0
   21.7696  -32.9805    0.7043 H   0  0  0  0  0  0  0  0  0  0  0  0
   21.9444  -31.3033    1.2500 H   0  0  0  0  0  0  0  0  0  0  0  0
   16.5029  -34.5731   -3.7807 H   0  0  0  0  0  0  0  0  0  0  0  0
   17.4679  -34.2284   -2.3434 H   0  0  0  0  0  0  0  0  0  0  0  0
   16.0396  -36.2675   -2.0335 H   0  0  0  0  0  0  0  0  0  0  0  0
   15.6202  -35.0193   -0.8700 H   0  0  0  0  0  0  0  0  0  0  0  0
   14.5902  -35.3034   -2.2738 H   0  0  0  0  0  0  0  0  0  0  0  0
  1  2  2  0
  1  6  1  0
  1  7  1  0
  2  3  1  0
  2 15  1  0
  3  4  2  0
  3 16  1  0
  4  5  1  0
  4  8  1  0
  5  6  2  0
  5 17  1  0
  6 18  1  0
  7 11  1  0
  7 19  1  0
  7 20  1  0
  8 21  1  0
  8 22  1  0
  8 23  1  0
  9 10  1  0
  9 12  1  0
  9 24  1  0
  9 25  1  0
 10 26  1  0
 10 27  1  0
 10 28  1  0
 11 12  1  0
 11 13  1  6
 11 14  2  0
M  CHG  1  13  -1
M  END
$$$$
