4CR9_ligand
     RDKit          3D

 13 14  0  0  1  0  0  0  0  0999 V2000
   49.6311   23.1697   12.2160 C   0  0  0  0  0  0  0  0  0  0  0  0
   49.8731   21.6851   12.0384 C   0  0  0  0  0  0  0  0  0  0  0  0
   48.7893   20.8098   11.9792 C   0  0  0  0  0  0  0  0  0  0  0  0
   49.0063   19.4435   11.8529 C   0  0  0  0  0  0  0  0  0  0  0  0
   50.2612   18.9705   11.7853 N   0  0  0  0  0  0  0  0  0  0  0  0
   51.3864   19.7612   11.8328 C   0  0  0  0  0  0  0  0  0  0  0  0
   51.2050   21.1735   11.9495 C   0  0  0  0  0  0  0  0  0  0  0  0
   52.3721   21.9867   11.9823 C   0  0  0  0  0  0  0  0  0  0  0  0
   53.6399   21.4104   11.9237 C   0  0  0  0  0  0  0  0  0  0  0  0
   53.7897   20.0275   11.8268 C   0  0  0  0  0  0  0  0  0  0  0  0
   52.6768   19.1911   11.7782 C   0  0  0  0  0  0  0  0  0  0  0  0
   54.7635   22.2316   11.9671 N   0  0  0  0  0  0  0  0  0  0  0  0
   47.9289   18.5472   11.8219 N   0  0  0  0  0  0  0  0  0  0  0  0
  1  2  1  0
  2  3  2  0
  2  7  1  0
  3  4  1  0
  4  5  2  0
  4 13  1  0
  5  6  1  0
  6  7  2  0
  6 11  1  0
  7  8  1  0
  8  9  2  0
  9 10  1  0
  9 12  1  0
 10 11  2  0
M  CHG  1   5   1
M  END
$$$$
