4GR0_ligand
     RDKit          3D

 44 47  0  0  1  0  0  0  0  0999 V2000
   -9.3264   26.0999   -5.0627 O   0  0  0  0  0  0  0  0  0  0  0  0
   -6.2051   22.4592   -5.9680 N   0  0  0  0  0  0  0  0  0  0  0  0
   -7.3653   22.7502   -5.2497 O   0  0  0  0  0  0  0  0  0  0  0  0
   -8.6344   26.5221   -4.1377 C   0  0  0  0  0  0  0  0  0  0  0  0
   -8.2468   25.6010   -2.9659 C   0  0  2  0  0  0  0  0  0  0  0  0
   -8.1955   24.1072   -3.3879 C   0  0  0  0  0  0  0  0  0  0  0  0
   -5.7893   24.1164   -4.5356 C   0  0  0  0  0  0  0  0  0  0  0  0
   -5.2584   23.2337   -5.4845 C   0  0  0  0  0  0  0  0  0  0  0  0
   -3.8294   23.1145   -5.9253 C   0  0  0  0  0  0  0  0  0  0  0  0
   -3.3974   22.2200   -6.9132 C   0  0  0  0  0  0  0  0  0  0  0  0
   -2.0605   22.2032   -7.3166 C   0  0  0  0  0  0  0  0  0  0  0  0
   -1.1241   23.0690   -6.7332 C   0  0  0  0  0  0  0  0  0  0  0  0
   -1.5599   23.9194   -5.7124 C   0  0  0  0  0  0  0  0  0  0  0  0
   -2.8890   23.9445   -5.3194 C   0  0  0  0  0  0  0  0  0  0  0  0
   -7.1017   23.7457   -4.3722 C   0  0  0  0  0  0  0  0  0  0  0  0
    3.1353   20.5765   -8.4994 Cl  0  0  0  0  0  0  0  0  0  0  0  0
    2.3222   22.0043   -7.9818 C   0  0  0  0  0  0  0  0  0  0  0  0
    0.9644   21.9656   -7.6563 C   0  0  0  0  0  0  0  0  0  0  0  0
    3.0356   23.1945   -7.8684 C   0  0  0  0  0  0  0  0  0  0  0  0
    2.3953   24.3406   -7.4118 C   0  0  0  0  0  0  0  0  0  0  0  0
    1.0500   24.2936   -7.0589 C   0  0  0  0  0  0  0  0  0  0  0  0
    0.3076   23.1062   -7.1659 C   0  0  0  0  0  0  0  0  0  0  0  0
   -9.2151   25.8560   -1.7774 C   0  0  0  0  0  0  0  0  0  0  0  0
   -8.7396   24.9815   -0.1851 P   0  0  2  0  0  0  0  0  0  0  0  0
   -7.3369   25.4253    0.1575 O   0  0  0  0  0  0  0  0  0  0  0  0
   -9.1018   23.5172   -0.2731 O   0  0  0  0  0  0  0  0  0  0  0  0
   -9.8436   25.7244    1.0494 C   0  0  0  0  0  0  0  0  0  0  0  0
   -9.3269   26.1557    2.2749 C   0  0  0  0  0  0  0  0  0  0  0  0
  -10.1771   26.6857    3.2407 C   0  0  0  0  0  0  0  0  0  0  0  0
  -11.5414   26.7866    2.9797 C   0  0  0  0  0  0  0  0  0  0  0  0
  -12.7041   27.4762    4.3188 Br  0  0  0  0  0  0  0  0  0  0  0  0
  -12.0615   26.3733    1.7542 C   0  0  0  0  0  0  0  0  0  0  0  0
  -11.2099   25.8431    0.7889 C   0  0  0  0  0  0  0  0  0  0  0  0
   -8.1967   27.7897   -4.0764 N   0  0  0  0  0  0  0  0  0  0  0  0
   -8.4688   28.8199   -5.0789 C   0  0  2  0  0  0  0  0  0  0  0  0
   -7.8339   28.5131   -6.4474 C   0  0  0  0  0  0  0  0  0  0  0  0
   -6.8233   27.8168   -6.5103 O   0  0  0  0  0  0  0  0  0  0  0  0
   -7.9747   30.1625   -4.5261 C   0  0  0  0  0  0  0  0  0  0  0  0
   -8.4364   29.0479   -7.5195 N   0  0  0  0  0  0  0  0  0  0  0  0
   -7.9476   28.9126   -8.8949 C   0  0  2  0  0  0  0  0  0  0  0  0
   -6.7146   29.7852   -9.2302 C   0  0  0  0  0  0  0  0  0  0  0  0
   -5.9989   29.4677  -10.1776 O   0  0  0  0  0  0  0  0  0  0  0  0
   -9.1045   29.2051   -9.8627 C   0  0  0  0  0  0  0  0  0  0  0  0
   -6.4579   30.8544   -8.4686 N   0  0  0  0  0  0  0  0  0  0  0  0
  1  4  2  0
  2  3  1  0
  2  8  2  0
  3 15  1  0
  4  5  1  0
  4 34  1  0
  5  6  1  6
  5 23  1  0
  6 15  1  0
  7  8  1  0
  7 15  2  0
  8  9  1  0
  9 10  2  0
  9 14  1  0
 10 11  1  0
 11 12  2  0
 12 13  1  0
 12 22  1  0
 13 14  2  0
 16 17  1  0
 17 18  2  0
 17 19  1  0
 18 22  1  0
 19 20  2  0
 20 21  1  0
 21 22  2  0
 23 24  1  0
 24 25  1  1
 24 26  2  0
 24 27  1  0
 27 28  2  0
 27 33  1  0
 28 29  1  0
 29 30  2  0
 30 31  1  0
 30 32  1  0
 32 33  2  0
 34 35  1  0
 35 36  1  0
 35 38  1  1
 36 37  2  0
 36 39  1  0
 39 40  1  0
 40 41  1  0
 40 43  1  6
 41 42  2  0
 41 44  1  0
M  CHG  1  25  -1
M  END
$$$$
