3UUO_ligand
     RDKit          3D

 23 26  0  0  1  0  0  0  0  0999 V2000
    9.0685   37.9241   58.0084 C   0  0  0  0  0  0  0  0  0  0  0  0
    7.3550   36.4634   57.1657 C   0  0  0  0  0  0  0  0  0  0  0  0
    8.5531   37.8158   59.3308 C   0  0  0  0  0  0  0  0  0  0  0  0
    8.6059   38.2181   61.7559 C   0  0  0  0  0  0  0  0  0  0  0  0
    6.7937   36.3405   58.4340 C   0  0  0  0  0  0  0  0  0  0  0  0
    7.4085   36.9842   59.5477 C   0  0  0  0  0  0  0  0  0  0  0  0
    9.1163   38.4851   60.4725 C   0  0  0  0  0  0  0  0  0  0  0  0
    8.4800   37.2451   56.9358 C   0  0  0  0  0  0  0  0  0  0  0  0
    8.8717   38.5811   63.1189 C   0  0  0  0  0  0  0  0  0  0  0  0
    7.5034   37.3584   61.8379 C   0  0  0  0  0  0  0  0  0  0  0  0
    9.9255   40.6500   59.6556 C   0  0  0  0  0  0  0  0  0  0  0  0
   11.5264   38.8980   60.2170 C   0  0  0  0  0  0  0  0  0  0  0  0
   10.9615   41.7364   59.9672 C   0  0  0  0  0  0  0  0  0  0  0  0
   12.6294   39.9458   60.4839 C   0  0  0  0  0  0  0  0  0  0  0  0
    5.5144   35.5357   58.6189 C   0  0  0  0  0  0  0  0  0  0  0  0
    9.9427   39.4975   63.6636 C   0  0  0  0  0  0  0  0  0  0  0  0
   10.0698   38.1109   55.3279 C   0  0  0  0  0  0  0  0  0  0  0  0
    8.0268   37.9830   63.9279 N   0  0  0  0  0  0  0  0  0  0  0  0
    7.1934   37.2445   63.1736 N   0  0  0  0  0  0  0  0  0  0  0  0
    6.9082   36.7869   60.7998 N   0  0  0  0  0  0  0  0  0  0  0  0
   10.1543   39.3986   60.3937 N   0  0  0  0  0  0  0  0  0  0  0  0
   12.3639   41.2030   59.6485 N   0  0  0  0  0  0  0  0  0  0  0  0
    8.9387   37.3010   55.6337 O   0  0  0  0  0  0  0  0  0  0  0  0
  1  3  2  0
  1  8  1  0
  2  5  1  0
  2  8  2  0
  3  6  1  0
  3  7  1  0
  4  7  2  0
  4  9  1  0
  4 10  1  0
  5  6  2  0
  5 15  1  0
  6 20  1  0
  7 21  1  0
  8 23  1  0
  9 16  1  0
  9 18  2  0
 10 19  1  0
 10 20  2  0
 11 13  1  0
 11 21  1  0
 12 14  1  0
 12 21  1  0
 13 22  1  0
 14 22  1  0
 17 23  1  0
 18 19  1  0
M  CHG  1  22   1
M  END
$$$$
