4JXS_ligand
     RDKit          3D

 22 23  0  0  1  0  0  0  0  0999 V2000
   81.6398    4.8193   33.4485 C   0  0  0  0  0  0  0  0  0  0  0  0
   82.3251    4.5064   34.6168 C   0  0  0  0  0  0  0  0  0  0  0  0
   83.7310    4.4919   34.6474 C   0  0  0  0  0  0  0  0  0  0  0  0
   84.4766    4.1447   35.9110 C   0  0  0  0  0  0  0  0  0  0  0  0
   85.6568    3.7290   35.8179 O   0  0  0  0  0  0  0  0  0  0  0  0
   83.8877    4.2744   37.0082 O   0  0  0  0  0  0  0  0  0  0  0  0
   84.4230    4.8181   33.4685 C   0  0  0  0  0  0  0  0  0  0  0  0
   83.7396    5.1302   32.2986 C   0  0  0  0  0  0  0  0  0  0  0  0
   82.3473    5.1225   32.2828 C   0  0  0  0  0  0  0  0  0  0  0  0
   81.6212    5.5314   31.0133 C   0  0  0  0  0  0  0  0  0  0  0  0
   80.3722    4.7765   30.7963 N   0  0  0  0  0  0  0  0  0  0  0  0
   78.8526    5.6284   30.6337 S   0  0  0  0  0  0  0  0  0  0  0  0
   77.7547    4.6575   30.5677 O   0  0  0  0  0  0  0  0  0  0  0  0
   78.8523    6.7101   31.6201 O   0  0  0  0  0  0  0  0  0  0  0  0
   79.0613    6.3938   28.9917 C   0  0  0  0  0  0  0  0  0  0  0  0
   79.0714    7.7908   28.8732 C   0  0  0  0  0  0  0  0  0  0  0  0
   79.3408    8.2401   27.6016 C   0  0  0  0  0  0  0  0  0  0  0  0
   79.5344    6.9412   26.4908 S   0  0  0  0  0  0  0  0  0  0  0  0
   79.2724    5.7363   27.7498 C   0  0  0  0  0  0  0  0  0  0  0  0
   79.3200    4.2930   27.3790 C   0  0  0  0  0  0  0  0  0  0  0  0
   79.0690    3.4596   28.2721 O   0  0  0  0  0  0  0  0  0  0  0  0
   79.5739    3.9568   26.1972 O   0  0  0  0  0  0  0  0  0  0  0  0
  1  2  2  0
  1  9  1  0
  2  3  1  0
  3  4  1  0
  3  7  2  0
  4  5  2  0
  4  6  1  0
  7  8  1  0
  8  9  2  0
  9 10  1  0
 10 11  1  0
 11 12  1  0
 12 13  2  0
 12 14  2  0
 12 15  1  0
 15 16  1  0
 15 19  2  0
 16 17  2  0
 17 18  1  0
 18 19  1  0
 19 20  1  0
 20 21  1  0
 20 22  2  0
M  CHG  2   6  -1  21  -1
M  END
$$$$
