3B5R_ligand
     RDKit          3D

 28 29  0  0  1  0  0  0  0  0999 V2000
   29.4619   -0.6692    7.9610 C   0  0  0  0  0  0  0  0  0  0  0  0
   29.5348   -0.8352    9.3402 C   0  0  0  0  0  0  0  0  0  0  0  0
   29.5877   -2.0860    9.8470 F   0  0  0  0  0  0  0  0  0  0  0  0
   29.4984    0.2835   10.1756 C   0  0  0  0  0  0  0  0  0  0  0  0
   29.5118    0.1099   11.8924 Cl  0  0  0  0  0  0  0  0  0  0  0  0
   29.4125    1.5580    9.6150 C   0  0  0  0  0  0  0  0  0  0  0  0
   29.3739    1.7223    8.2329 C   0  0  0  0  0  0  0  0  0  0  0  0
   29.3819    0.6041    7.4024 C   0  0  0  0  0  0  0  0  0  0  0  0
   29.1256    0.7474    6.0686 O   0  0  0  0  0  0  0  0  0  0  0  0
   30.2379    0.7012    5.1814 C   0  0  0  0  0  0  0  0  0  0  0  0
   29.7599    0.6070    3.6979 C   0  0  1  0  0  0  0  0  0  0  0  0
   30.7662    1.1726    2.8847 O   0  0  0  0  0  0  0  0  0  0  0  0
   29.6110   -0.8636    3.2450 C   0  0  0  0  0  0  0  0  0  0  0  0
   28.4454    1.4140    3.4868 C   0  0  0  0  0  0  0  0  0  0  0  0
   27.3806    0.8124    3.3320 O   0  0  0  0  0  0  0  0  0  0  0  0
   28.5519    2.7618    3.5487 N   0  0  0  0  0  0  0  0  0  0  0  0
   27.5370    3.7331    3.5813 C   0  0  0  0  0  0  0  0  0  0  0  0
   26.1747    3.4592    3.7826 C   0  0  0  0  0  0  0  0  0  0  0  0
   27.9453    5.0591    3.4569 C   0  0  0  0  0  0  0  0  0  0  0  0
   27.0183    6.0899    3.5037 C   0  0  0  0  0  0  0  0  0  0  0  0
   25.6614    5.8180    3.6776 C   0  0  0  0  0  0  0  0  0  0  0  0
   24.7705    6.9670    3.6935 C   0  0  0  0  0  0  0  0  0  0  0  0
   24.0734    7.8856    3.7029 N   0  0  0  0  0  0  0  0  0  0  0  0
   25.2205    4.4844    3.8329 C   0  0  0  0  0  0  0  0  0  0  0  0
   23.7485    4.1004    4.0658 C   0  0  0  0  0  0  0  0  0  0  0  0
   22.9140    4.7904    3.2897 F   0  0  0  0  0  0  0  0  0  0  0  0
   23.5174    2.8071    3.8317 F   0  0  0  0  0  0  0  0  0  0  0  0
   23.4491    4.3428    5.3380 F   0  0  0  0  0  0  0  0  0  0  0  0
  1  2  2  0
  1  8  1  0
  2  3  1  0
  2  4  1  0
  4  5  1  0
  4  6  2  0
  6  7  1  0
  7  8  2  0
  8  9  1  0
  9 10  1  0
 10 11  1  0
 11 12  1  0
 11 13  1  6
 11 14  1  0
 14 15  2  0
 14 16  1  0
 16 17  1  0
 17 18  2  0
 17 19  1  0
 18 24  1  0
 19 20  2  0
 20 21  1  0
 21 22  1  0
 21 24  2  0
 22 23  3  0
 24 25  1  0
 25 26  1  0
 25 27  1  0
 25 28  1  0
M  END
$$$$
