3GNW_ligand
     RDKit          3D

 44 49  0  0  1  0  0  0  0  0999 V2000
   27.6587   58.6159   11.7405 O   0  0  0  0  0  0  0  0  0  0  0  0
   28.5446   57.7576   11.7622 C   0  0  0  0  0  0  0  0  0  0  0  0
   29.9086   58.1742   12.2499 C   0  0  0  0  0  0  0  0  0  0  0  0
   30.4497   57.6323   13.4238 C   0  0  0  0  0  0  0  0  0  0  0  0
   31.7127   58.0596   13.8367 C   0  0  0  0  0  0  0  0  0  0  0  0
   32.4065   59.0015   13.0735 C   0  0  0  0  0  0  0  0  0  0  0  0
   31.8071   59.4879   11.9091 C   0  0  0  0  0  0  0  0  0  0  0  0
   32.5144   60.4929   11.0197 C   0  0  0  0  0  0  0  0  0  0  0  0
   30.5749   59.0894   11.4967 N   0  0  0  0  0  0  0  0  0  0  0  0
   28.3418   56.4634   11.3520 N   0  0  0  0  0  0  0  0  0  0  0  0
   29.4233   55.5772   11.1425 C   0  0  0  0  0  0  0  0  0  0  0  0
   30.4138   55.9133   10.2021 C   0  0  0  0  0  0  0  0  0  0  0  0
   31.4576   55.0567    9.8969 C   0  0  0  0  0  0  0  0  0  0  0  0
   26.9628   55.9557   11.3035 C   0  0  2  0  0  0  0  0  0  0  0  0
   26.5830   55.4076   12.7074 C   0  0  1  0  0  0  0  0  0  0  0  0
   24.7025   55.2405   12.8965 S   0  0  0  0  0  0  0  0  0  0  0  0
   24.1500   54.4260   11.8090 O   0  0  0  0  0  0  0  0  0  0  0  0
   24.1757   56.5956   13.0719 O   0  0  0  0  0  0  0  0  0  0  0  0
   24.5250   54.3328   14.5372 C   0  0  0  0  0  0  0  0  0  0  0  0
   25.4794   53.1239   14.6411 C   0  0  0  0  0  0  0  0  0  0  0  0
   25.2849   52.5464   16.0641 C   0  0  0  0  0  0  0  0  0  0  0  0
   25.1109   52.0479   13.5895 C   0  0  0  0  0  0  0  0  0  0  0  0
   26.9613   53.6212   14.5558 C   0  0  0  0  0  0  0  0  0  0  0  0
   27.4432   54.2375   13.2237 C   0  0  0  0  0  0  0  0  0  0  0  0
   28.5765   53.8065   12.7980 N   0  0  0  0  0  0  0  0  0  0  0  0
   29.4584   54.2994   11.7875 C   0  0  0  0  0  0  0  0  0  0  0  0
   30.5569   53.4685   11.4594 C   0  0  0  0  0  0  0  0  0  0  0  0
   30.7194   52.2442   12.0561 O   0  0  0  0  0  0  0  0  0  0  0  0
   31.5298   53.8330   10.5337 C   0  0  0  0  0  0  0  0  0  0  0  0
   26.7550   55.0735   10.0473 C   0  0  0  0  0  0  0  0  0  0  0  0
   26.8893   55.6661    8.7851 C   0  0  0  0  0  0  0  0  0  0  0  0
   27.1014   56.9972    8.6897 F   0  0  0  0  0  0  0  0  0  0  0  0
   26.8457   54.8946    7.6238 C   0  0  0  0  0  0  0  0  0  0  0  0
   26.6703   53.5120    7.6913 C   0  0  0  0  0  0  0  0  0  0  0  0
   26.4906   52.9221    8.9491 C   0  0  0  0  0  0  0  0  0  0  0  0
   26.5303   53.6949   10.1042 C   0  0  0  0  0  0  0  0  0  0  0  0
   26.7101   52.8094    6.5021 O   0  0  0  0  0  0  0  0  0  0  0  0
   26.7756   51.3803    6.5279 C   0  0  0  0  0  0  0  0  0  0  0  0
   25.4110   50.7444    6.7608 C   0  0  0  0  0  0  0  0  0  0  0  0
   25.3273   49.5438    7.4674 C   0  0  0  0  0  0  0  0  0  0  0  0
   24.0936   48.9436    7.6800 C   0  0  0  0  0  0  0  0  0  0  0  0
   22.9443   49.5465    7.1792 C   0  0  0  0  0  0  0  0  0  0  0  0
   23.0150   50.7400    6.4647 C   0  0  0  0  0  0  0  0  0  0  0  0
   24.2515   51.3426    6.2614 C   0  0  0  0  0  0  0  0  0  0  0  0
  1  2  2  0
  2  3  1  0
  2 10  1  0
  3  4  2  0
  3  9  1  0
  4  5  1  0
  5  6  2  0
  6  7  1  0
  7  8  1  0
  7  9  2  0
 10 11  1  0
 10 14  1  0
 11 12  2  0
 11 26  1  0
 12 13  1  0
 13 29  2  0
 14 15  1  0
 14 30  1  6
 15 16  1  6
 15 24  1  0
 16 17  2  0
 16 18  2  0
 16 19  1  0
 19 20  1  0
 20 21  1  0
 20 22  1  0
 20 23  1  0
 23 24  1  0
 24 25  2  0
 25 26  1  0
 26 27  2  0
 27 28  1  0
 27 29  1  0
 30 31  2  0
 30 36  1  0
 31 32  1  0
 31 33  1  0
 33 34  2  0
 34 35  1  0
 34 37  1  0
 35 36  2  0
 37 38  1  0
 38 39  1  0
 39 40  2  0
 39 44  1  0
 40 41  1  0
 41 42  2  0
 42 43  1  0
 43 44  2  0
M  END
$$$$
