3RR4_ligand
     RDKit          3D

 18 20  0  0  1  0  0  0  0  0999 V2000
   17.3693   17.6859   17.3451 N   0  0  0  0  0  0  0  0  0  0  0  0
   19.4333   18.0035   18.1410 N   0  0  0  0  0  0  0  0  0  0  0  0
   18.6099   17.9748   17.0455 C   0  0  0  0  0  0  0  0  0  0  0  0
   18.3208   18.3383   14.5817 C   0  0  0  0  0  0  0  0  0  0  0  0
   18.6667   17.7177   19.2432 C   0  0  0  0  0  0  0  0  0  0  0  0
   18.9401   17.6141   20.6090 C   0  0  0  0  0  0  0  0  0  0  0  0
   17.8457   17.3227   21.4330 C   0  0  0  0  0  0  0  0  0  0  0  0
   15.6202   16.7739   23.0371 C   0  0  0  0  0  0  0  0  0  0  0  0
   16.5514   17.1307   20.9167 C   0  0  0  0  0  0  0  0  0  0  0  0
   16.2992   17.2121   19.5486 C   0  0  0  0  0  0  0  0  0  0  0  0
   17.3704   17.5204   18.7030 C   0  0  0  0  0  0  0  0  0  0  0  0
   19.1062   18.2251   15.7972 N   0  0  0  0  0  0  0  0  0  0  0  0
   18.0271   17.2319   22.9360 C   0  0  0  0  0  0  0  0  0  0  0  0
   19.0739   17.4352   23.5468 O   0  0  0  0  0  0  0  0  0  0  0  0
   16.8693   16.9320   23.5832 N   0  0  0  0  0  0  0  0  0  0  0  0
   14.5469   16.5428   23.9398 N   0  0  0  0  0  0  0  0  0  0  0  0
   13.1735   16.7530   23.4982 C   0  0  0  0  0  0  0  0  0  0  0  0
   15.4625   16.8489   21.7591 N   0  0  0  0  0  0  0  0  0  0  0  0
  1  3  2  0
  1 11  1  0
  2  3  1  0
  2  5  1  0
  3 12  1  0
  4 12  1  0
  5  6  1  0
  5 11  2  0
  6  7  2  0
  7  9  1  0
  7 13  1  0
  8 15  1  0
  8 16  1  0
  8 18  2  0
  9 10  2  0
  9 18  1  0
 10 11  1  0
 13 14  2  0
 13 15  1  0
 16 17  1  0
M  END
$$$$
