7OP9 - prepared_ligand12
     RDKit          3D

 12 13  0  0  1  0  0  0  0  0999 V2000
  -87.6744  -41.5546  -59.3763 C   0  0  0  0  0  0  0  0  0  0  0  0
  -85.8874  -40.9515  -58.1120 C   0  0  0  0  0  0  0  0  0  0  0  0
  -86.5485  -41.3682  -56.9481 C   0  0  0  0  0  0  0  0  0  0  0  0
  -87.8289  -41.9245  -57.0861 C   0  0  0  0  0  0  0  0  0  0  0  0
  -84.6842  -40.5871  -56.4512 C   0  0  0  0  0  0  0  0  0  0  0  0
  -88.3934  -42.0132  -58.3175 N   0  0  0  0  0  0  0  0  0  0  0  0
  -86.4161  -41.0351  -59.3355 N   0  0  0  0  0  0  0  0  0  0  0  0
  -85.7468  -41.1130  -55.8876 N   0  0  0  0  0  0  0  0  0  0  0  0
  -84.6739  -40.4624  -57.7601 N   0  0  0  0  0  0  0  0  0  0  0  0
  -88.4467  -41.5959  -60.9120 Cl  0  0  0  0  0  0  0  0  0  0  0  0
  -88.7070  -42.4868  -55.7140 Cl  0  0  0  0  0  0  0  0  0  0  0  0
  -83.8371  -40.2846  -55.8536 H   0  0  0  0  0  0  0  0  0  0  0  0
  1  6  2  0
  1  7  1  0
  1 10  1  0
  2  3  1  0
  2  7  2  0
  2  9  1  0
  3  4  2  0
  3  8  1  0
  4  6  1  0
  4 11  1  0
  5  8  2  0
  5  9  1  0
  5 12  1  0
M  CHG  1   9  -1
M  END
$$$$
