7BA0 - prepared_ligand
     RDKit          3D

110115  0  0  1  0  0  0  0  0999 V2000
  -17.6327   -2.4749   -1.7818 C   0  0  0  0  0  0  0  0  0  0  0  0
  -16.4435   -3.1248   -1.0541 C   0  0  0  0  0  0  0  0  0  0  0  0
  -16.8025   -4.5337   -0.5476 C   0  0  0  0  0  0  0  0  0  0  0  0
  -18.0823   -4.5216    0.3123 C   0  0  0  0  0  0  0  0  0  0  0  0
  -19.2532   -3.8043   -0.3960 C   0  0  0  0  0  0  0  0  0  0  0  0
  -18.8946   -2.3702   -0.8795 C   0  0  0  0  0  0  0  0  0  0  0  0
  -20.0961   -1.6459   -1.5958 C   0  0  2  0  0  0  0  0  0  0  0  0
  -19.8078   -0.1709   -2.0109 C   0  0  0  0  0  0  0  0  0  0  0  0
  -18.9094    0.4192   -1.4037 O   0  0  0  0  0  0  0  0  0  0  0  0
  -20.4750    0.4260   -3.0480 N   0  0  0  0  0  0  0  0  0  0  0  0
  -21.6663   -0.2067   -3.6772 C   0  0  0  0  0  0  0  0  0  0  0  0
  -21.6461    0.0518   -5.1952 C   0  0  0  0  0  0  0  0  0  0  0  0
  -21.5099    1.5295   -5.5397 C   0  0  0  0  0  0  0  0  0  0  0  0
  -20.2274    2.0746   -4.9051 C   0  0  0  0  0  0  0  0  0  0  0  0
  -20.1652    1.8612   -3.3705 C   0  0  1  0  0  0  0  0  0  0  0  0
  -21.0987    2.8818   -2.6701 C   0  0  0  0  0  0  0  0  0  0  0  0
  -20.9637    4.0878   -2.8772 O   0  0  0  0  0  0  0  0  0  0  0  0
  -22.0687    2.3363   -1.9015 O   0  0  0  0  0  0  0  0  0  0  0  0
  -23.0892    3.1392   -1.3158 C   0  0  2  0  0  0  0  0  0  0  0  0
  -22.8577    3.2279    0.2116 C   0  0  0  0  0  0  0  0  0  0  0  0
  -23.5656    4.4074    0.9011 C   0  0  0  0  0  0  0  0  0  0  0  0
  -22.8782    5.7431    0.6352 C   0  0  0  0  0  0  0  0  0  0  0  0
  -21.6917    6.0698    1.2983 C   0  0  0  0  0  0  0  0  0  0  0  0
  -23.4262    6.6504   -0.2689 C   0  0  0  0  0  0  0  0  0  0  0  0
  -22.8027    7.8744   -0.5007 C   0  0  0  0  0  0  0  0  0  0  0  0
  -21.6171    8.2141    0.1704 C   0  0  0  0  0  0  0  0  0  0  0  0
  -20.9481    9.4127   -0.0021 O   0  0  0  0  0  0  0  0  0  0  0  0
  -21.6182   10.4947   -0.6334 C   0  0  0  0  0  0  0  0  0  0  0  0
  -21.0574    7.3055    1.0771 C   0  0  0  0  0  0  0  0  0  0  0  0
  -19.9059    7.7145    1.7235 O   0  0  0  0  0  0  0  0  0  0  0  0
  -19.3166    6.8771    2.7045 C   0  0  0  0  0  0  0  0  0  0  0  0
  -24.4320    2.5389   -1.7179 C   0  0  0  0  0  0  0  0  0  0  0  0
  -24.7977    1.2542   -1.3020 C   0  0  0  0  0  0  0  0  0  0  0  0
  -25.2965    3.2601   -2.5452 C   0  0  0  0  0  0  0  0  0  0  0  0
  -26.5197    2.7152   -2.9315 C   0  0  0  0  0  0  0  0  0  0  0  0
  -26.8927    1.4487   -2.4822 C   0  0  0  0  0  0  0  0  0  0  0  0
  -26.0355    0.7120   -1.6518 C   0  0  0  0  0  0  0  0  0  0  0  0
  -26.3455   -0.5333   -1.1487 O   0  0  0  0  0  0  0  0  0  0  0  0
  -27.7118   -0.8129   -0.8439 C   0  0  0  0  0  0  0  0  0  0  0  0
  -27.8204   -1.8285    0.3165 C   0  0  1  0  0  0  0  0  0  0  0  0
  -27.3145   -3.0867   -0.0893 O   0  0  0  0  0  0  0  0  0  0  0  0
  -27.2257   -1.3464    1.6750 C   0  0  1  0  0  0  0  0  0  0  0  0
  -27.5578   -2.2736    2.6933 O   0  0  0  0  0  0  0  0  0  0  0  0
  -25.7035   -1.0594    1.7440 C   0  0  0  0  0  0  0  0  0  0  0  0
  -24.9209   -2.2123    1.4369 O   0  0  0  0  0  0  0  0  0  0  0  0
  -23.7629   -1.9922    0.7192 C   0  0  0  0  0  0  0  0  0  0  0  0
  -23.6876   -2.5220   -0.5744 C   0  0  0  0  0  0  0  0  0  0  0  0
  -24.7934   -3.1910   -1.0624 O   0  0  0  0  0  0  0  0  0  0  0  0
  -24.7858   -3.7029   -2.3923 C   0  0  0  0  0  0  0  0  0  0  0  0
  -22.5098   -2.3559   -1.3054 C   0  0  0  0  0  0  0  0  0  0  0  0
  -21.3970   -1.7101   -0.7722 C   0  0  0  0  0  0  0  0  0  0  0  0
  -21.4904   -1.1738    0.5156 C   0  0  0  0  0  0  0  0  0  0  0  0
  -22.6708   -1.2988    1.2720 C   0  0  0  0  0  0  0  0  0  0  0  0
  -22.8140   -0.7913    2.5514 O   0  0  0  0  0  0  0  0  0  0  0  0
  -21.7570   -0.0292    3.1266 C   0  0  0  0  0  0  0  0  0  0  0  0
  -17.8703   -3.0266   -2.6935 H   0  0  0  0  0  0  0  0  0  0  0  0
  -17.3238   -1.4916   -2.1272 H   0  0  0  0  0  0  0  0  0  0  0  0
  -16.1349   -2.4974   -0.2165 H   0  0  0  0  0  0  0  0  0  0  0  0
  -15.5893   -3.1708   -1.7264 H   0  0  0  0  0  0  0  0  0  0  0  0
  -15.9696   -4.9476    0.0216 H   0  0  0  0  0  0  0  0  0  0  0  0
  -16.9469   -5.1988   -1.4012 H   0  0  0  0  0  0  0  0  0  0  0  0
  -17.8773   -4.0334    1.2651 H   0  0  0  0  0  0  0  0  0  0  0  0
  -18.3703   -5.5451    0.5551 H   0  0  0  0  0  0  0  0  0  0  0  0
  -20.1156   -3.7847    0.2702 H   0  0  0  0  0  0  0  0  0  0  0  0
  -19.5839   -4.3934   -1.2478 H   0  0  0  0  0  0  0  0  0  0  0  0
  -18.6117   -1.8018    0.0081 H   0  0  0  0  0  0  0  0  0  0  0  0
  -20.2351   -2.2156   -2.5140 H   0  0  0  0  0  0  0  0  0  0  0  0
  -22.5771    0.2074   -3.2436 H   0  0  0  0  0  0  0  0  0  0  0  0
  -21.6645   -1.2898   -3.6120 H   0  0  0  0  0  0  0  0  0  0  0  0
  -22.5594   -0.3438   -5.6404 H   0  0  0  0  0  0  0  0  0  0  0  0
  -20.8293   -0.5077   -5.6523 H   0  0  0  0  0  0  0  0  0  0  0  0
  -22.3781    2.0791   -5.1743 H   0  0  0  0  0  0  0  0  0  0  0  0
  -21.4989    1.6688   -6.6165 H   0  0  0  0  0  0  0  0  0  0  0  0
  -20.1163    3.1291   -5.1649 H   0  0  0  0  0  0  0  0  0  0  0  0
  -19.3552    1.5987   -5.3514 H   0  0  0  0  0  0  0  0  0  0  0  0
  -19.1620    2.1213   -3.0297 H   0  0  0  0  0  0  0  0  0  0  0  0
  -23.0574    4.1539   -1.7180 H   0  0  0  0  0  0  0  0  0  0  0  0
  -21.7934    3.3425    0.4022 H   0  0  0  0  0  0  0  0  0  0  0  0
  -23.1378    2.2910    0.6950 H   0  0  0  0  0  0  0  0  0  0  0  0
  -23.5710    4.2451    1.9802 H   0  0  0  0  0  0  0  0  0  0  0  0
  -24.6182    4.4477    0.6152 H   0  0  0  0  0  0  0  0  0  0  0  0
  -21.2768    5.3535    1.9906 H   0  0  0  0  0  0  0  0  0  0  0  0
  -24.3377    6.4065   -0.7920 H   0  0  0  0  0  0  0  0  0  0  0  0
  -23.2494    8.5462   -1.2153 H   0  0  0  0  0  0  0  0  0  0  0  0
  -20.9826   11.3791   -0.6013 H   0  0  0  0  0  0  0  0  0  0  0  0
  -21.8411   10.2878   -1.6773 H   0  0  0  0  0  0  0  0  0  0  0  0
  -22.5472   10.7330   -0.1152 H   0  0  0  0  0  0  0  0  0  0  0  0
  -18.5311    7.4356    3.2111 H   0  0  0  0  0  0  0  0  0  0  0  0
  -20.0285    6.5587    3.4675 H   0  0  0  0  0  0  0  0  0  0  0  0
  -18.8638    6.0053    2.2336 H   0  0  0  0  0  0  0  0  0  0  0  0
  -24.1262    0.6782   -0.6826 H   0  0  0  0  0  0  0  0  0  0  0  0
  -25.0171    4.2397   -2.8991 H   0  0  0  0  0  0  0  0  0  0  0  0
  -27.1808    3.2766   -3.5753 H   0  0  0  0  0  0  0  0  0  0  0  0
  -27.8459    1.0435   -2.7871 H   0  0  0  0  0  0  0  0  0  0  0  0
  -28.2094   -1.1926   -1.7381 H   0  0  0  0  0  0  0  0  0  0  0  0
  -28.2385    0.0963   -0.5444 H   0  0  0  0  0  0  0  0  0  0  0  0
  -28.8885   -1.9882    0.4748 H   0  0  0  0  0  0  0  0  0  0  0  0
  -26.3826   -2.9798   -0.3149 H   0  0  0  0  0  0  0  0  0  0  0  0
  -27.7363   -0.4202    1.9417 H   0  0  0  0  0  0  0  0  0  0  0  0
  -27.2388   -3.1369    2.4189 H   0  0  0  0  0  0  0  0  0  0  0  0
  -25.4416   -0.7311    2.7507 H   0  0  0  0  0  0  0  0  0  0  0  0
  -25.4592   -0.2173    1.0977 H   0  0  0  0  0  0  0  0  0  0  0  0
  -25.7589   -4.1368   -2.6182 H   0  0  0  0  0  0  0  0  0  0  0  0
  -24.6015   -2.9189   -3.1282 H   0  0  0  0  0  0  0  0  0  0  0  0
  -24.0427   -4.4914   -2.5090 H   0  0  0  0  0  0  0  0  0  0  0  0
  -22.4507   -2.7462   -2.3023 H   0  0  0  0  0  0  0  0  0  0  0  0
  -20.6238   -0.6799    0.9239 H   0  0  0  0  0  0  0  0  0  0  0  0
  -22.0315    0.2591    4.1402 H   0  0  0  0  0  0  0  0  0  0  0  0
  -20.8282   -0.5980    3.1920 H   0  0  0  0  0  0  0  0  0  0  0  0
  -21.5838    0.8873    2.5637 H   0  0  0  0  0  0  0  0  0  0  0  0
  1  2  1  0
  1  6  1  0
  1 56  1  0
  1 57  1  0
  2  3  1  0
  2 58  1  0
  2 59  1  0
  3  4  1  0
  3 60  1  0
  3 61  1  0
  4  5  1  0
  4 62  1  0
  4 63  1  0
  5  6  1  0
  5 64  1  0
  5 65  1  0
  6  7  1  0
  6 66  1  0
  7  8  1  0
  7 51  1  0
  7 67  1  6
  8  9  2  0
  8 10  1  0
 10 11  1  0
 10 15  1  0
 11 12  1  0
 11 68  1  0
 11 69  1  0
 12 13  1  0
 12 70  1  0
 12 71  1  0
 13 14  1  0
 13 72  1  0
 13 73  1  0
 14 15  1  0
 14 74  1  0
 14 75  1  0
 15 16  1  0
 15 76  1  1
 16 17  2  0
 16 18  1  0
 18 19  1  0
 19 20  1  0
 19 32  1  0
 19 77  1  6
 20 21  1  0
 20 78  1  0
 20 79  1  0
 21 22  1  0
 21 80  1  0
 21 81  1  0
 22 23  2  0
 22 24  1  0
 23 29  1  0
 23 82  1  0
 24 25  2  0
 24 83  1  0
 25 26  1  0
 25 84  1  0
 26 27  1  0
 26 29  2  0
 27 28  1  0
 28 85  1  0
 28 86  1  0
 28 87  1  0
 29 30  1  0
 30 31  1  0
 31 88  1  0
 31 89  1  0
 31 90  1  0
 32 33  2  0
 32 34  1  0
 33 37  1  0
 33 91  1  0
 34 35  2  0
 34 92  1  0
 35 36  1  0
 35 93  1  0
 36 37  2  0
 36 94  1  0
 37 38  1  0
 38 39  1  0
 39 40  1  0
 39 95  1  0
 39 96  1  0
 40 41  1  0
 40 42  1  0
 40 97  1  1
 41 98  1  0
 42 43  1  0
 42 44  1  0
 42 99  1  1
 43100  1  0
 44 45  1  0
 44101  1  0
 44102  1  0
 45 46  1  0
 46 47  2  0
 46 53  1  0
 47 48  1  0
 47 50  1  0
 48 49  1  0
 49103  1  0
 49104  1  0
 49105  1  0
 50 51  2  0
 50106  1  0
 51 52  1  0
 52 53  2  0
 52107  1  0
 53 54  1  0
 54 55  1  0
 55108  1  0
 55109  1  0
 55110  1  0
M  END
$$$$
