7T1D - prepared_ligand2
     RDKit          3D

 60 65  0  0  1  0  0  0  0  0999 V2000
   21.7387   -8.6617   29.4653 N   0  0  0  0  0  0  0  0  0  0  0  0
   25.7533   -7.8454   21.2879 N   0  0  0  0  0  0  0  0  0  0  0  0
   23.6211   -7.6975   28.1499 C   0  0  0  0  0  0  0  0  0  0  0  0
   21.2666   -7.4918   26.0825 C   0  0  0  0  0  0  0  0  0  0  0  0
   20.3366   -6.5266   25.6967 C   0  0  0  0  0  0  0  0  0  0  0  0
   20.4001   -5.9702   24.4230 C   0  0  0  0  0  0  0  0  0  0  0  0
   21.3911   -6.3596   23.5172 C   0  0  0  0  0  0  0  0  0  0  0  0
   22.2436   -6.5940   21.1356 C   0  0  0  0  0  0  0  0  0  0  0  0
   22.2448   -7.9034   25.1752 C   0  0  0  0  0  0  0  0  0  0  0  0
   26.7221   -7.7931   20.4032 C   0  0  0  0  0  0  0  0  0  0  0  0
   27.3560   -6.9307   18.0025 C   0  0  0  0  0  0  0  0  0  0  0  0
   26.8981   -7.8285   14.3395 C   0  0  0  0  0  0  0  0  0  0  0  0
   26.1352   -9.0003   14.4063 C   0  0  0  0  0  0  0  0  0  0  0  0
   25.8445   -9.5589   15.6605 C   0  0  0  0  0  0  0  0  0  0  0  0
   25.9341   -9.2324   11.9122 C   0  0  0  0  0  0  0  0  0  0  0  0
   24.3728  -10.7576   11.9794 C   0  0  0  0  0  0  0  0  0  0  0  0
   22.1872   -8.1546   28.3379 C   0  0  0  0  0  0  0  0  0  0  0  0
   20.4495   -8.8948   29.2830 C   0  0  0  0  0  0  0  0  0  0  0  0
   19.5974   -9.4469   30.4021 C   0  0  0  0  0  0  0  0  0  0  0  0
   21.2001   -8.0418   27.3774 N   0  0  0  0  0  0  0  0  0  0  0  0
   20.0819   -8.5436   27.9951 C   0  0  0  0  0  0  0  0  0  0  0  0
   22.3154   -7.3505   23.8915 C   0  0  0  0  0  0  0  0  0  0  0  0
   23.3609   -7.8549   22.9018 C   0  0  0  0  0  0  0  0  0  0  0  0
   23.5258   -7.1044   21.6425 N   0  0  0  0  0  0  0  0  0  0  0  0
   21.5050   -5.7065   22.1513 C   0  0  0  0  0  0  0  0  0  0  0  0
   24.6693   -7.2356   20.8875 C   0  0  0  0  0  0  0  0  0  0  0  0
   24.8223   -6.5516   19.2942 S   0  0  0  0  0  0  0  0  0  0  0  0
   26.4634   -7.1419   19.2029 C   0  0  0  0  0  0  0  0  0  0  0  0
   26.9591   -7.7080   16.7500 C   0  0  0  0  0  0  0  0  0  0  0  0
   26.2606   -8.9178   16.8235 C   0  0  0  0  0  0  0  0  0  0  0  0
   27.3019   -7.1914   15.5035 C   0  0  0  0  0  0  0  0  0  0  0  0
   25.6203   -9.5667   13.2108 N   0  0  0  0  0  0  0  0  0  0  0  0
   24.6666  -10.5178   13.2361 N   0  0  0  0  0  0  0  0  0  0  0  0
   25.1283   -9.9927   11.0968 C   0  0  0  0  0  0  0  0  0  0  0  0
   23.6698   -6.6577   27.8272 H   0  0  0  0  0  0  0  0  0  0  0  0
   24.2019   -7.7675   29.0705 H   0  0  0  0  0  0  0  0  0  0  0  0
   24.1486   -8.2943   27.4063 H   0  0  0  0  0  0  0  0  0  0  0  0
   19.5732   -6.1920   26.3843 H   0  0  0  0  0  0  0  0  0  0  0  0
   19.6844   -5.2099   24.1459 H   0  0  0  0  0  0  0  0  0  0  0  0
   21.6223   -7.4094   20.7658 H   0  0  0  0  0  0  0  0  0  0  0  0
   22.4171   -5.9608   20.2712 H   0  0  0  0  0  0  0  0  0  0  0  0
   22.9496   -8.6733   25.4552 H   0  0  0  0  0  0  0  0  0  0  0  0
   27.6593   -8.2704   20.6481 H   0  0  0  0  0  0  0  0  0  0  0  0
   28.3846   -7.1850   18.2437 H   0  0  0  0  0  0  0  0  0  0  0  0
   27.3682   -5.8659   17.7665 H   0  0  0  0  0  0  0  0  0  0  0  0
   27.1453   -7.3582   13.4014 H   0  0  0  0  0  0  0  0  0  0  0  0
   25.2714  -10.4709   15.7492 H   0  0  0  0  0  0  0  0  0  0  0  0
   26.6793   -8.4932   11.6831 H   0  0  0  0  0  0  0  0  0  0  0  0
   23.6212  -11.4765   11.7006 H   0  0  0  0  0  0  0  0  0  0  0  0
   18.6315   -9.7999   30.0425 H   0  0  0  0  0  0  0  0  0  0  0  0
   20.0729  -10.2873   30.9070 H   0  0  0  0  0  0  0  0  0  0  0  0
   19.3964   -8.6903   31.1607 H   0  0  0  0  0  0  0  0  0  0  0  0
   19.1362   -8.5799   27.4790 H   0  0  0  0  0  0  0  0  0  0  0  0
   23.1770   -8.9039   22.6684 H   0  0  0  0  0  0  0  0  0  0  0  0
   24.3139   -7.8268   23.4313 H   0  0  0  0  0  0  0  0  0  0  0  0
   22.0433   -4.7643   22.2546 H   0  0  0  0  0  0  0  0  0  0  0  0
   20.5224   -5.4416   21.7623 H   0  0  0  0  0  0  0  0  0  0  0  0
   26.0107   -9.3493   17.7806 H   0  0  0  0  0  0  0  0  0  0  0  0
   27.8447   -6.2676   15.4190 H   0  0  0  0  0  0  0  0  0  0  0  0
   25.0975   -9.9943   10.0176 H   0  0  0  0  0  0  0  0  0  0  0  0
  1 17  2  0
  1 18  1  0
  2 10  1  0
  2 26  2  0
  3 17  1  0
  3 35  1  0
  3 36  1  0
  3 37  1  0
  4  5  2  0
  4  9  1  0
  4 20  1  0
  5  6  1  0
  5 38  1  0
  6  7  2  0
  6 39  1  0
  7 22  1  0
  7 25  1  0
  8 24  1  0
  8 25  1  0
  8 40  1  0
  8 41  1  0
  9 22  2  0
  9 42  1  0
 10 28  2  0
 10 43  1  0
 11 28  1  0
 11 29  1  0
 11 44  1  0
 11 45  1  0
 12 13  2  0
 12 31  1  0
 12 46  1  0
 13 14  1  0
 13 32  1  0
 14 30  2  0
 14 47  1  0
 15 32  1  0
 15 34  2  0
 15 48  1  0
 16 33  2  0
 16 34  1  0
 16 49  1  0
 17 20  1  0
 18 19  1  0
 18 21  2  0
 19 50  1  0
 19 51  1  0
 19 52  1  0
 20 21  1  0
 21 53  1  0
 22 23  1  0
 23 24  1  0
 23 54  1  0
 23 55  1  0
 24 26  1  0
 25 56  1  0
 25 57  1  0
 26 27  1  0
 27 28  1  0
 29 30  1  0
 29 31  2  0
 30 58  1  0
 31 59  1  0
 32 33  1  0
 34 60  1  0
M  END
$$$$
