7WKL - prepared_ligand4
     RDKit          3D

 14 14  0  0  1  0  0  0  0  0999 V2000
   27.7352  -11.5065   86.1387 C   0  0  0  0  0  0  0  0  0  0  0  0
   26.6682  -11.9922   85.3900 C   0  0  0  0  0  0  0  0  0  0  0  0
   26.4005  -13.3595   85.3430 C   0  0  0  0  0  0  0  0  0  0  0  0
   25.3509  -13.8003   84.5793 O   0  0  0  0  0  0  0  0  0  0  0  0
   27.1989  -14.2466   86.0741 C   0  0  0  0  0  0  0  0  0  0  0  0
   26.9444  -15.5939   86.0793 O   0  0  0  0  0  0  0  0  0  0  0  0
   28.2760  -13.7567   86.8161 C   0  0  0  0  0  0  0  0  0  0  0  0
   28.5488  -12.3897   86.8413 C   0  0  0  0  0  0  0  0  0  0  0  0
   27.9269  -10.4441   86.1706 H   0  0  0  0  0  0  0  0  0  0  0  0
   26.0433  -11.2936   84.8582 H   0  0  0  0  0  0  0  0  0  0  0  0
   25.1236  -14.7181   84.7716 H   0  0  0  0  0  0  0  0  0  0  0  0
   26.0724  -15.8343   85.7517 H   0  0  0  0  0  0  0  0  0  0  0  0
   28.9064  -14.4355   87.3689 H   0  0  0  0  0  0  0  0  0  0  0  0
   29.3858  -12.0086   87.4050 H   0  0  0  0  0  0  0  0  0  0  0  0
  1  2  2  0
  1  8  1  0
  1  9  1  0
  2  3  1  0
  2 10  1  0
  3  4  1  0
  3  5  2  0
  4 11  1  0
  5  6  1  0
  5  7  1  0
  6 12  1  0
  7  8  2  0
  7 13  1  0
  8 14  1  0
M  END
$$$$
