3RSX_ligand
     RDKit          3D

 16 18  0  0  1  0  0  0  0  0999 V2000
   68.9028   49.9154    8.6815 C   0  0  0  0  0  0  0  0  0  0  0  0
   69.3490   48.8089    9.4627 C   0  0  0  0  0  0  0  0  0  0  0  0
   70.0670   49.0794   10.6461 C   0  0  0  0  0  0  0  0  0  0  0  0
   71.0379   50.6459   12.3037 C   0  0  0  0  0  0  0  0  0  0  0  0
   70.6903   51.6505   13.2158 C   0  0  0  0  0  0  0  0  0  0  0  0
   72.1350   49.9135   12.7565 C   0  0  0  0  0  0  0  0  0  0  0  0
   68.2124   49.6355    7.5294 N   0  0  0  0  0  0  0  0  0  0  0  0
   67.9245   48.3947    7.1136 C   0  0  0  0  0  0  0  0  0  0  0  0
   69.0582   47.4892    9.0325 C   0  0  0  0  0  0  0  0  0  0  0  0
   68.3344   47.2929    7.8579 C   0  0  0  0  0  0  0  0  0  0  0  0
   67.2162   48.2437    5.9247 N   0  0  0  0  0  0  0  0  0  0  0  0
   69.1594   51.2431    9.0763 C   0  0  0  0  0  0  0  0  0  0  0  0
   69.8675   51.4662   10.2539 C   0  0  0  0  0  0  0  0  0  0  0  0
   70.3149   50.3974   11.0360 C   0  0  0  0  0  0  0  0  0  0  0  0
   71.4995   51.6740   14.3337 C   0  0  0  0  0  0  0  0  0  0  0  0
   72.7327   50.4618   14.2823 S   0  0  0  0  0  0  0  0  0  0  0  0
  1  2  1  0
  1  7  1  0
  1 12  2  0
  2  3  2  0
  2  9  1  0
  3 14  1  0
  4  5  1  0
  4  6  2  0
  4 14  1  0
  5 15  2  0
  6 16  1  0
  7  8  2  0
  8 10  1  0
  8 11  1  0
  9 10  2  0
 12 13  1  0
 13 14  2  0
 15 16  1  0
M  CHG  1   7   1
M  END
$$$$
