7KB1 - prepared_ligand3
     RDKit          3D

 35 35  0  0  1  0  0  0  0  0999 V2000
    0.4619   10.5267   47.5112 C   0  0  0  0  0  0  0  0  0  0  0  0
    0.3061    4.7939   48.5339 C   0  0  0  0  0  0  0  0  0  0  0  0
   -5.2233    6.8649   45.2333 C   0  0  0  0  0  0  0  0  0  0  0  0
   -5.5412    3.9067   45.4702 C   0  0  0  0  0  0  0  0  0  0  0  0
   -4.4299    4.5677   45.8551 C   0  0  0  0  0  0  0  0  0  0  0  0
   -4.2150    5.9467   45.7980 C   0  0  0  0  0  0  0  0  0  0  0  0
   -1.8413    5.8720   46.7127 C   0  0  0  0  0  0  0  0  0  0  0  0
   -0.7572    6.8238   47.2841 C   0  0  0  0  0  0  0  0  0  0  0  0
   -0.6608    8.2206   46.9848 C   0  0  0  0  0  0  0  0  0  0  0  0
    0.3133    9.0087   47.6346 C   0  0  0  0  0  0  0  0  0  0  0  0
    1.1775    7.1018   48.7222 C   0  0  0  0  0  0  0  0  0  0  0  0
    0.2133    6.2707   48.1553 C   0  0  0  0  0  0  0  0  0  0  0  0
   -3.0890    6.5220   46.2131 N   0  0  0  0  0  0  0  0  0  0  0  0
    1.1779    8.4133   48.4684 N   0  0  0  0  0  0  0  0  0  0  0  0
   -1.4214    8.7972   46.1354 O   0  0  0  0  0  0  0  0  0  0  0  0
    1.0626    4.0911   47.5674 O   0  0  0  0  0  0  0  0  0  0  0  0
   -0.9683    2.9432   46.3422 O   0  0  0  0  0  0  0  0  0  0  0  0
    0.5263    1.5609   47.8825 O   0  0  0  0  0  0  0  0  0  0  0  0
    1.4223    2.3523   45.6203 O   0  0  0  0  0  0  0  0  0  0  0  0
   -5.8126    7.6187   46.0389 O   0  0  0  0  0  0  0  0  0  0  0  0
   -5.3663    6.8392   43.9897 O   0  0  0  0  0  0  0  0  0  0  0  0
    0.4678    2.6392   46.7923 P   0  0  0  0  0  0  0  0  0  0  0  0
    1.4661   10.8652   47.7657 H   0  0  0  0  0  0  0  0  0  0  0  0
    0.2549   10.8754   46.4991 H   0  0  0  0  0  0  0  0  0  0  0  0
   -0.2391   11.0181   48.1855 H   0  0  0  0  0  0  0  0  0  0  0  0
   -0.6682    4.3504   48.7268 H   0  0  0  0  0  0  0  0  0  0  0  0
    0.8654    4.7250   49.4679 H   0  0  0  0  0  0  0  0  0  0  0  0
   -5.5949    2.8323   45.5625 H   0  0  0  0  0  0  0  0  0  0  0  0
   -6.4115    4.4011   45.0617 H   0  0  0  0  0  0  0  0  0  0  0  0
   -3.6234    3.9646   46.2469 H   0  0  0  0  0  0  0  0  0  0  0  0
   -2.1636    5.1511   47.4600 H   0  0  0  0  0  0  0  0  0  0  0  0
   -1.4120    5.3334   45.8720 H   0  0  0  0  0  0  0  0  0  0  0  0
    1.9586    6.7573   49.3786 H   0  0  0  0  0  0  0  0  0  0  0  0
   -3.0180    7.5314   46.1005 H   0  0  0  0  0  0  0  0  0  0  0  0
    1.8750    8.9907   48.9244 H   0  0  0  0  0  0  0  0  0  0  0  0
  1 10  1  0
  1 23  1  0
  1 24  1  0
  1 25  1  0
  2 12  1  0
  2 16  1  0
  2 26  1  0
  2 27  1  0
  3  6  1  0
  3 20  1  0
  3 21  2  0
  4  5  2  0
  4 28  1  0
  4 29  1  0
  5  6  1  0
  5 30  1  0
  6 13  2  0
  7  8  1  0
  7 13  1  0
  7 31  1  0
  7 32  1  0
  8  9  2  0
  8 12  1  0
  9 10  1  0
  9 15  1  0
 10 14  2  0
 11 12  2  0
 11 14  1  0
 11 33  1  0
 13 34  1  0
 14 35  1  0
 16 22  1  0
 17 22  1  0
 18 22  1  0
 19 22  2  0
M  CHG  6  13   1  14   1  15  -1  17  -1  18  -1  20  -1
M  END
$$$$
