1YVF - prepared_ligand
     RDKit          3D

 43 45  0  0  1  0  0  0  0  0999 V2000
   -9.8215   55.0885   47.0742 C   0  0  0  0  0  0  0  0  0  0  0  0
   -8.6519   54.7114   47.6685 C   0  0  0  0  0  0  0  0  0  0  0  0
   -8.4417   54.6987   49.0247 N   0  0  0  0  0  0  0  0  0  0  0  0
   -8.1628   55.7795   49.7827 C   0  0  0  0  0  0  0  0  0  0  0  0
   -8.0346   56.9210   49.3348 O   0  0  0  0  0  0  0  0  0  0  0  0
  -11.1048   55.5973   47.6279 C   0  0  0  0  0  0  0  0  0  0  0  0
  -12.0904   56.0048   46.7206 C   0  0  0  0  0  0  0  0  0  0  0  0
  -13.5232   56.7203   48.5318 C   0  0  0  0  0  0  0  0  0  0  0  0
  -11.3766   55.7111   48.9957 C   0  0  0  0  0  0  0  0  0  0  0  0
  -12.5568   56.2816   49.4439 C   0  0  0  0  0  0  0  0  0  0  0  0
  -14.9411   57.5949   50.2386 C   0  0  0  0  0  0  0  0  0  0  0  0
  -14.6385   58.8670   50.7400 C   0  0  0  0  0  0  0  0  0  0  0  0
  -14.8014   59.1332   52.0989 C   0  0  0  0  0  0  0  0  0  0  0  0
  -15.2844   58.1486   52.9565 C   0  0  0  0  0  0  0  0  0  0  0  0
  -15.6124   56.8930   52.4535 C   0  0  0  0  0  0  0  0  0  0  0  0
  -15.4425   56.6127   51.0979 C   0  0  0  0  0  0  0  0  0  0  0  0
   -7.4031   54.1941   46.8195 C   0  0  0  0  0  0  0  0  0  0  0  0
   -7.4706   54.4028   45.5836 O   0  0  0  0  0  0  0  0  0  0  0  0
   -6.4650   53.6417   47.4402 O   0  0  0  0  0  0  0  0  0  0  0  0
   -8.0535   55.5291   51.2659 C   0  0  0  0  0  0  0  0  0  0  0  0
   -7.2390   56.3582   52.0428 C   0  0  0  0  0  0  0  0  0  0  0  0
   -7.1404   56.1664   53.4145 C   0  0  0  0  0  0  0  0  0  0  0  0
   -7.8775   55.1581   54.0273 C   0  0  0  0  0  0  0  0  0  0  0  0
   -8.7042   54.3317   53.2717 C   0  0  0  0  0  0  0  0  0  0  0  0
   -8.7881   54.5087   51.8938 C   0  0  0  0  0  0  0  0  0  0  0  0
  -13.2871   56.5591   47.1687 C   0  0  0  0  0  0  0  0  0  0  0  0
  -14.7198   57.2935   48.9152 O   0  0  0  0  0  0  0  0  0  0  0  0
  -13.9972   60.2451   49.5926 Br  0  0  0  0  0  0  0  0  0  0  0  0
   -9.8536   55.0134   45.9982 H   0  0  0  0  0  0  0  0  0  0  0  0
   -8.3418   53.7894   49.4523 H   0  0  0  0  0  0  0  0  0  0  0  0
  -11.9322   55.9090   45.6569 H   0  0  0  0  0  0  0  0  0  0  0  0
  -10.7062   55.3596   49.7551 H   0  0  0  0  0  0  0  0  0  0  0  0
  -12.7088   56.3626   50.5095 H   0  0  0  0  0  0  0  0  0  0  0  0
  -14.5482   60.1005   52.4943 H   0  0  0  0  0  0  0  0  0  0  0  0
  -15.4096   58.3586   54.0085 H   0  0  0  0  0  0  0  0  0  0  0  0
  -15.9961   56.1428   53.1236 H   0  0  0  0  0  0  0  0  0  0  0  0
  -15.6802   55.6308   50.7156 H   0  0  0  0  0  0  0  0  0  0  0  0
   -6.6816   57.1629   51.5905 H   0  0  0  0  0  0  0  0  0  0  0  0
   -6.5023   56.8113   53.9942 H   0  0  0  0  0  0  0  0  0  0  0  0
   -7.8055   55.0211   55.0950 H   0  0  0  0  0  0  0  0  0  0  0  0
   -9.2775   53.5549   53.7538 H   0  0  0  0  0  0  0  0  0  0  0  0
   -9.4437   53.8604   51.3299 H   0  0  0  0  0  0  0  0  0  0  0  0
  -14.0358   56.8687   46.4563 H   0  0  0  0  0  0  0  0  0  0  0  0
  1  2  2  0
  1  6  1  0
  1 29  1  0
  2  3  1  0
  2 17  1  0
  3  4  1  0
  3 30  1  0
  4  5  2  0
  4 20  1  0
  6  7  2  0
  6  9  1  0
  7 26  1  0
  7 31  1  0
  8 10  1  0
  8 26  2  0
  8 27  1  0
  9 10  2  0
  9 32  1  0
 10 33  1  0
 11 12  2  0
 11 16  1  0
 11 27  1  0
 12 13  1  0
 12 28  1  0
 13 14  2  0
 13 34  1  0
 14 15  1  0
 14 35  1  0
 15 16  2  0
 15 36  1  0
 16 37  1  0
 17 18  1  0
 17 19  2  0
 20 21  2  0
 20 25  1  0
 21 22  1  0
 21 38  1  0
 22 23  2  0
 22 39  1  0
 23 24  1  0
 23 40  1  0
 24 25  2  0
 24 41  1  0
 25 42  1  0
 26 43  1  0
M  CHG  1  18  -1
M  END
$$$$
