3ZDG_ligand
     RDKit          3D

 13 12  0  0  1  0  0  0  0  0999 V2000
  -50.1356   13.1994   57.4914 N   0  0  0  0  0  0  0  0  0  0  0  0
  -51.0803   11.7112   59.9952 C   0  0  0  0  0  0  0  0  0  0  0  0
  -49.8528   12.3388   60.3351 O   0  0  0  0  0  0  0  0  0  0  0  0
  -49.7725   14.6313   57.9334 C   0  0  0  0  0  0  0  0  0  0  0  0
  -47.7815   12.4668   61.2806 N   0  0  0  0  0  0  0  0  0  0  0  0
  -49.0863   10.5387   61.5012 O   0  0  0  0  0  0  0  0  0  0  0  0
  -51.6252   12.8093   57.6912 C   0  0  1  0  0  0  0  0  0  0  0  0
  -51.9834   12.6610   59.1912 C   0  0  0  0  0  0  0  0  0  0  0  0
  -48.9245   11.6845   61.0722 C   0  0  0  0  0  0  0  0  0  0  0  0
  -49.6132   12.9248   56.0675 C   0  0  0  0  0  0  0  0  0  0  0  0
  -52.5579   13.7915   56.9645 C   0  0  0  0  0  0  0  0  0  0  0  0
  -46.6794   11.9599   62.0851 C   0  0  0  0  0  0  0  0  0  0  0  0
  -47.5394   13.7543   60.6271 C   0  0  0  0  0  0  0  0  0  0  0  0
  1  4  1  0
  1  7  1  0
  1 10  1  0
  2  3  1  0
  2  8  1  0
  3  9  1  0
  5  9  1  0
  5 12  1  0
  5 13  1  0
  6  9  2  0
  7  8  1  0
  7 11  1  1
M  CHG  1   1   1
M  END
$$$$
