1G2K_ligand
     RDKit          3D

 45 49  0  0  1  0  0  0  0  0999 V2000
   10.8838   23.5659    5.8966 N   0  0  0  0  0  0  0  0  0  0  0  0
   11.5813   22.0606    6.5183 S   0  0  0  0  0  0  0  0  0  0  0  0
   13.3421   22.2292    6.4448 N   0  0  0  0  0  0  0  0  0  0  0  0
   13.9015   22.1538    5.0635 C   0  0  1  0  0  0  0  0  0  0  0  0
   13.9795   23.5289    4.3350 C   0  0  1  0  0  0  0  0  0  0  0  0
   12.8672   24.5793    4.6774 C   0  0  2  0  0  0  0  0  0  0  0  0
   11.3769   24.1451    4.6069 C   0  0  1  0  0  0  0  0  0  0  0  0
    9.5906   24.0638    6.4225 C   0  0  0  0  0  0  0  0  0  0  0  0
    9.6489   25.4332    7.0736 C   0  0  0  0  0  0  0  0  0  0  0  0
    8.6240   26.3491    6.8230 C   0  0  0  0  0  0  0  0  0  0  0  0
    8.5734   27.5776    7.4984 C   0  0  0  0  0  0  0  0  0  0  0  0
    9.5762   27.8670    8.4358 C   0  0  0  0  0  0  0  0  0  0  0  0
   10.6083   26.9621    8.6788 C   0  0  0  0  0  0  0  0  0  0  0  0
   10.6495   25.7500    7.9953 C   0  0  0  0  0  0  0  0  0  0  0  0
   11.1892   20.9873    5.6010 O   0  0  0  0  0  0  0  0  0  0  0  0
   15.2123   20.6490    3.6767 O   0  0  0  0  0  0  0  0  0  0  0  0
   16.1080   19.6201    3.4546 C   0  0  0  0  0  0  0  0  0  0  0  0
   17.0842   19.2079    4.3784 C   0  0  0  0  0  0  0  0  0  0  0  0
   17.9588   18.1731    4.0597 C   0  0  0  0  0  0  0  0  0  0  0  0
   17.8569   17.5421    2.8246 C   0  0  0  0  0  0  0  0  0  0  0  0
   16.8937   17.9404    1.9028 C   0  0  0  0  0  0  0  0  0  0  0  0
   16.0257   18.9810    2.2170 C   0  0  0  0  0  0  0  0  0  0  0  0
   14.0948   22.9775    7.4918 C   0  0  0  0  0  0  0  0  0  0  0  0
   15.1808   22.1335    8.1407 C   0  0  0  0  0  0  0  0  0  0  0  0
   14.8299   21.1312    9.0460 C   0  0  0  0  0  0  0  0  0  0  0  0
   15.8110   20.3243    9.6127 C   0  0  0  0  0  0  0  0  0  0  0  0
   17.1470   20.5338    9.2782 C   0  0  0  0  0  0  0  0  0  0  0  0
   17.5098   21.5482    8.3934 C   0  0  0  0  0  0  0  0  0  0  0  0
   16.5245   22.3553    7.8302 C   0  0  0  0  0  0  0  0  0  0  0  0
   15.2481   24.1215    4.5553 O   0  0  0  0  0  0  0  0  0  0  0  0
   13.0090   25.7240    3.8589 O   0  0  0  0  0  0  0  0  0  0  0  0
   11.0007   23.2817    3.3757 C   0  0  0  0  0  0  0  0  0  0  0  0
    9.5855   23.1260    3.2664 O   0  0  0  0  0  0  0  0  0  0  0  0
    8.8033   24.1520    2.7688 C   0  0  0  0  0  0  0  0  0  0  0  0
    9.3025   25.3280    2.1840 C   0  0  0  0  0  0  0  0  0  0  0  0
    8.4252   26.2787    1.6694 C   0  0  0  0  0  0  0  0  0  0  0  0
    7.0520   26.0656    1.7430 C   0  0  0  0  0  0  0  0  0  0  0  0
    6.5455   24.9146    2.3382 C   0  0  0  0  0  0  0  0  0  0  0  0
    7.4231   23.9656    2.8534 C   0  0  0  0  0  0  0  0  0  0  0  0
   11.2009   21.9602    7.9296 O   0  0  0  0  0  0  0  0  0  0  0  0
   15.1316   21.2203    4.9800 C   0  0  0  0  0  0  0  0  0  0  0  0
    7.4831   28.5888    7.2301 C   0  0  0  0  0  0  0  0  0  0  0  0
    7.6604   29.7767    7.4933 O   0  0  0  0  0  0  0  0  0  0  0  0
    6.3348   28.1153    6.7114 N   0  0  0  0  0  0  0  0  0  0  0  0
    5.1749   28.9283    6.3655 C   0  0  0  0  0  0  0  0  0  0  0  0
  1  2  1  0
  1  7  1  0
  1  8  1  0
  2  3  1  0
  2 15  2  0
  2 40  2  0
  3  4  1  0
  3 23  1  0
  4  5  1  0
  4 41  1  1
  5  6  1  0
  5 30  1  1
  6  7  1  0
  6 31  1  6
  7 32  1  6
  8  9  1  0
  9 10  2  0
  9 14  1  0
 10 11  1  0
 11 12  2  0
 11 42  1  0
 12 13  1  0
 13 14  2  0
 16 17  1  0
 16 41  1  0
 17 18  2  0
 17 22  1  0
 18 19  1  0
 19 20  2  0
 20 21  1  0
 21 22  2  0
 23 24  1  0
 24 25  2  0
 24 29  1  0
 25 26  1  0
 26 27  2  0
 27 28  1  0
 28 29  2  0
 32 33  1  0
 33 34  1  0
 34 35  2  0
 34 39  1  0
 35 36  1  0
 36 37  2  0
 37 38  1  0
 38 39  2  0
 42 43  2  0
 42 44  1  0
 44 45  1  0
M  END
$$$$
