3UO4_ligand
     RDKit          3D

 29 32  0  0  1  0  0  0  0  0999 V2000
    3.2533   31.6613    8.8404 N   0  0  0  0  0  0  0  0  0  0  0  0
    3.9041   30.9616    6.6483 N   0  0  0  0  0  0  0  0  0  0  0  0
    5.3037   29.0894    6.2877 N   0  0  0  0  0  0  0  0  0  0  0  0
    2.6081   32.9200    6.9513 N   0  0  0  0  0  0  0  0  0  0  0  0
    3.8985   30.5700    9.3372 C   0  0  0  0  0  0  0  0  0  0  0  0
    3.2841   31.8149    7.4920 C   0  0  0  0  0  0  0  0  0  0  0  0
    4.5726   29.9046    7.1611 C   0  0  0  0  0  0  0  0  0  0  0  0
    4.5882   29.6606    8.5334 C   0  0  0  0  0  0  0  0  0  0  0  0
    5.4189   29.1869    4.8853 C   0  0  0  0  0  0  0  0  0  0  0  0
    4.3029   29.4776    4.0918 C   0  0  0  0  0  0  0  0  0  0  0  0
    4.4515   29.7086    2.7279 C   0  0  0  0  0  0  0  0  0  0  0  0
    5.6922   29.5646    2.1202 C   0  0  0  0  0  0  0  0  0  0  0  0
    6.8025   29.2367    2.8926 C   0  0  0  0  0  0  0  0  0  0  0  0
    6.6807   29.0679    4.2762 C   0  0  0  0  0  0  0  0  0  0  0  0
    7.9041   28.9284    5.0911 C   0  0  0  0  0  0  0  0  0  0  0  0
    2.3104   33.2712    5.6205 C   0  0  0  0  0  0  0  0  0  0  0  0
    1.2503   34.1497    5.4057 C   0  0  0  0  0  0  0  0  0  0  0  0
    0.8478   34.4679    4.1138 C   0  0  0  0  0  0  0  0  0  0  0  0
    1.4953   33.9125    2.9936 C   0  0  0  0  0  0  0  0  0  0  0  0
    2.6033   33.0826    3.2232 C   0  0  0  0  0  0  0  0  0  0  0  0
    3.0138   32.7819    4.5124 C   0  0  0  0  0  0  0  0  0  0  0  0
    1.0189   34.1941    1.5887 C   0  0  0  0  0  0  0  0  0  0  0  0
    8.2885   27.6913    5.6143 C   0  0  0  0  0  0  0  0  0  0  0  0
    9.3855   27.6141    6.4674 C   0  0  0  0  0  0  0  0  0  0  0  0
   10.0813   28.7754    6.7935 C   0  0  0  0  0  0  0  0  0  0  0  0
    9.7152   30.0057    6.2601 C   0  0  0  0  0  0  0  0  0  0  0  0
    8.6276   30.0799    5.4041 C   0  0  0  0  0  0  0  0  0  0  0  0
    1.7035   33.7904    0.6196 O   0  0  0  0  0  0  0  0  0  0  0  0
   -0.0585   34.8173    1.4400 O   0  0  0  0  0  0  0  0  0  0  0  0
  1  5  2  0
  1  6  1  0
  2  6  2  0
  2  7  1  0
  3  7  1  0
  3  9  1  0
  4  6  1  0
  4 16  1  0
  5  8  1  0
  7  8  2  0
  9 10  2  0
  9 14  1  0
 10 11  1  0
 11 12  2  0
 12 13  1  0
 13 14  2  0
 14 15  1  0
 15 23  2  0
 15 27  1  0
 16 17  2  0
 16 21  1  0
 17 18  1  0
 18 19  2  0
 19 20  1  0
 19 22  1  0
 20 21  2  0
 22 28  2  0
 22 29  1  0
 23 24  1  0
 24 25  2  0
 25 26  1  0
 26 27  2  0
M  CHG  1  29  -1
M  END
$$$$
