7JG0 - prepared_ligand1
     RDKit          3D

 32 32  0  0  1  0  0  0  0  0999 V2000
  -31.7151   21.2821   35.5476 C   0  0  1  0  0  0  0  0  0  0  0  0
  -31.0087   22.1708   36.3971 O   0  0  0  0  0  0  0  0  0  0  0  0
  -30.8921   20.7744   34.3646 C   0  0  1  0  0  0  0  0  0  0  0  0
  -29.9480   21.6403   33.7624 O   0  0  0  0  0  0  0  0  0  0  0  0
  -30.1867   19.6308   35.0678 C   0  0  1  0  0  0  0  0  0  0  0  0
  -31.1777   19.0065   35.8190 O   0  0  0  0  0  0  0  0  0  0  0  0
  -32.1314   19.9794   36.2587 C   0  0  2  0  0  0  0  0  0  0  0  0
  -33.5175   19.4633   35.8436 C   0  0  0  0  0  0  0  0  0  0  0  0
  -34.5258   20.2448   36.4513 O   0  0  0  0  0  0  0  0  0  0  0  0
  -29.4972   18.7054   34.2170 N   0  0  0  0  0  0  0  0  0  0  0  0
  -28.3888   18.0073   34.5176 C   0  0  0  0  0  0  0  0  0  0  0  0
  -27.8931   17.9826   35.6491 O   0  0  0  0  0  0  0  0  0  0  0  0
  -27.7701   17.2487   33.3241 C   0  0  0  0  0  0  0  0  0  0  0  0
  -26.3085   17.0534   33.5275 N   0  0  0  0  0  0  0  0  0  0  0  0
  -36.0885   20.4388   35.6794 P   0  0  0  0  0  0  0  0  0  0  0  0
  -35.8330   21.1161   34.3227 O   0  0  0  0  0  0  0  0  0  0  0  0
  -36.6656   19.0193   35.5432 O   0  0  0  0  0  0  0  0  0  0  0  0
  -36.9064   21.3226   36.6330 O   0  0  0  0  0  0  0  0  0  0  0  0
  -32.5954   21.8148   35.1882 H   0  0  0  0  0  0  0  0  0  0  0  0
  -30.6775   22.8970   35.8562 H   0  0  0  0  0  0  0  0  0  0  0  0
  -31.5560   20.3581   33.6041 H   0  0  0  0  0  0  0  0  0  0  0  0
  -30.3800   22.4798   33.5728 H   0  0  0  0  0  0  0  0  0  0  0  0
  -29.4291   20.0090   35.7617 H   0  0  0  0  0  0  0  0  0  0  0  0
  -32.0835   20.0588   37.3463 H   0  0  0  0  0  0  0  0  0  0  0  0
  -33.6504   18.4242   36.1448 H   0  0  0  0  0  0  0  0  0  0  0  0
  -33.6170   19.5115   34.7594 H   0  0  0  0  0  0  0  0  0  0  0  0
  -29.8728   18.6164   33.2800 H   0  0  0  0  0  0  0  0  0  0  0  0
  -27.8688   17.7758   32.3738 H   0  0  0  0  0  0  0  0  0  0  0  0
  -28.1734   16.2397   33.2366 H   0  0  0  0  0  0  0  0  0  0  0  0
  -25.9034   16.5251   32.7671 H   0  0  0  0  0  0  0  0  0  0  0  0
  -25.8178   17.9372   33.5609 H   0  0  0  0  0  0  0  0  0  0  0  0
  -26.1182   16.5513   34.3829 H   0  0  0  0  0  0  0  0  0  0  0  0
  1  2  1  0
  1  3  1  0
  1  7  1  0
  1 19  1  6
  2 20  1  0
  3  4  1  0
  3  5  1  0
  3 21  1  6
  4 22  1  0
  5  6  1  0
  5 10  1  0
  5 23  1  1
  6  7  1  0
  7  8  1  0
  7 24  1  1
  8  9  1  0
  8 25  1  0
  8 26  1  0
  9 15  1  0
 10 11  1  0
 10 27  1  0
 11 12  2  0
 11 13  1  0
 13 14  1  0
 13 28  1  0
 13 29  1  0
 14 30  1  0
 14 31  1  0
 14 32  1  0
 15 16  2  0
 15 17  1  0
 15 18  1  0
M  CHG  3  14   1  17  -1  18  -1
M  END
$$$$
