7OU8 - prepared_ligand3
     RDKit          3D

 45 47  0  0  1  0  0  0  0  0999 V2000
   -1.3205   77.9021   67.0379 C   0  0  2  0  0  0  0  0  0  0  0  0
   -2.6614   77.1521   67.2755 C   0  0  2  0  0  0  0  0  0  0  0  0
   -3.2349   77.5314   68.6582 C   0  0  1  0  0  0  0  0  0  0  0  0
   -3.7357   79.5519   70.1486 N   0  0  0  0  0  0  0  0  0  0  0  0
   -1.6078   79.3405   66.9908 N   0  0  0  0  0  0  0  0  0  0  0  0
   -2.0378   79.8020   68.3268 C   0  0  0  0  0  0  0  0  0  0  0  0
   -3.6386   79.9275   72.5622 C   0  0  0  0  0  0  0  0  0  0  0  0
   -3.0588   79.3351   71.2902 C   0  0  0  0  0  0  0  0  0  0  0  0
   -2.0018   78.7119   71.3473 O   0  0  0  0  0  0  0  0  0  0  0  0
   -3.3236   79.0782   68.8223 C   0  0  1  0  0  0  0  0  0  0  0  0
   -1.9380   79.7821   65.7712 C   0  0  0  0  0  0  0  0  0  0  0  0
   -2.6550   80.8777   65.4921 N   0  0  0  0  0  0  0  0  0  0  0  0
   -2.8656   81.4581   64.1559 C   0  0  0  0  0  0  0  0  0  0  0  0
   -2.9727   82.9808   64.0461 C   0  0  0  0  0  0  0  0  0  0  0  0
   -3.2763   83.5100   62.7884 C   0  0  0  0  0  0  0  0  0  0  0  0
   -3.3580   84.8871   62.6038 C   0  0  0  0  0  0  0  0  0  0  0  0
   -3.1397   85.7406   63.6813 C   0  0  0  0  0  0  0  0  0  0  0  0
   -2.8394   85.2299   64.9407 C   0  0  0  0  0  0  0  0  0  0  0  0
   -2.7508   83.8529   65.1237 C   0  0  0  0  0  0  0  0  0  0  0  0
   -1.3068   78.7488   64.5078 S   0  0  0  0  0  0  0  0  0  0  0  0
   -0.5966   77.6298   65.7315 C   0  0  0  0  0  0  0  0  0  0  0  0
   -2.4640   75.7589   67.1865 O   0  0  0  0  0  0  0  0  0  0  0  0
   -4.4634   76.8930   68.9416 O   0  0  0  0  0  0  0  0  0  0  0  0
   -0.6365   77.7001   67.8647 H   0  0  0  0  0  0  0  0  0  0  0  0
   -3.3877   77.3968   66.4970 H   0  0  0  0  0  0  0  0  0  0  0  0
   -2.5522   77.1566   69.4216 H   0  0  0  0  0  0  0  0  0  0  0  0
   -4.5697   80.1204   70.1882 H   0  0  0  0  0  0  0  0  0  0  0  0
   -2.2180   80.8690   68.2692 H   0  0  0  0  0  0  0  0  0  0  0  0
   -1.2116   79.6347   69.0184 H   0  0  0  0  0  0  0  0  0  0  0  0
   -2.8595   80.3491   73.1920 H   0  0  0  0  0  0  0  0  0  0  0  0
   -4.3540   80.7174   72.3424 H   0  0  0  0  0  0  0  0  0  0  0  0
   -4.1419   79.1468   73.1276 H   0  0  0  0  0  0  0  0  0  0  0  0
   -4.1458   79.4055   68.1850 H   0  0  0  0  0  0  0  0  0  0  0  0
   -3.0357   81.3921   66.2749 H   0  0  0  0  0  0  0  0  0  0  0  0
   -3.7582   80.9760   63.7554 H   0  0  0  0  0  0  0  0  0  0  0  0
   -2.0170   81.1558   63.5463 H   0  0  0  0  0  0  0  0  0  0  0  0
   -3.4428   82.8520   61.9470 H   0  0  0  0  0  0  0  0  0  0  0  0
   -3.5892   85.2910   61.6291 H   0  0  0  0  0  0  0  0  0  0  0  0
   -3.2034   86.8089   63.5387 H   0  0  0  0  0  0  0  0  0  0  0  0
   -2.6731   85.9010   65.7707 H   0  0  0  0  0  0  0  0  0  0  0  0
   -2.5038   83.4809   66.1060 H   0  0  0  0  0  0  0  0  0  0  0  0
   -0.6663   76.5912   65.4206 H   0  0  0  0  0  0  0  0  0  0  0  0
    0.4638   77.8608   65.8056 H   0  0  0  0  0  0  0  0  0  0  0  0
   -2.3725   75.5065   66.2583 H   0  0  0  0  0  0  0  0  0  0  0  0
   -4.4220   75.9897   68.6111 H   0  0  0  0  0  0  0  0  0  0  0  0
  1  2  1  0
  1  5  1  0
  1 21  1  0
  1 24  1  1
  2  3  1  0
  2 22  1  0
  2 25  1  6
  3 10  1  0
  3 23  1  0
  3 26  1  1
  4  8  1  0
  4 10  1  0
  4 27  1  0
  5  6  1  0
  5 11  1  0
  6 10  1  0
  6 28  1  0
  6 29  1  0
  7  8  1  0
  7 30  1  0
  7 31  1  0
  7 32  1  0
  8  9  2  0
 10 33  1  6
 11 12  2  0
 11 20  1  0
 12 13  1  0
 12 34  1  0
 13 14  1  0
 13 35  1  0
 13 36  1  0
 14 15  2  0
 14 19  1  0
 15 16  1  0
 15 37  1  0
 16 17  2  0
 16 38  1  0
 17 18  1  0
 17 39  1  0
 18 19  2  0
 18 40  1  0
 19 41  1  0
 20 21  1  0
 21 42  1  0
 21 43  1  0
 22 44  1  0
 23 45  1  0
M  CHG  1  12   1
M  END
$$$$
