2XDL_ligand
     RDKit          3D

 16 16  0  0  1  0  0  0  0  0999 V2000
   64.9888   33.1177   27.6948 C   0  0  0  0  0  0  0  0  0  0  0  0
   66.1190   33.6017   27.0233 C   0  0  0  0  0  0  0  0  0  0  0  0
   65.9303   34.3885   25.8744 C   0  0  0  0  0  0  0  0  0  0  0  0
   64.6473   34.6815   25.3970 C   0  0  0  0  0  0  0  0  0  0  0  0
   63.5345   34.1692   26.0720 C   0  0  0  0  0  0  0  0  0  0  0  0
   63.7064   33.3977   27.2203 C   0  0  0  0  0  0  0  0  0  0  0  0
   65.1354   32.3791   28.8406 O   0  0  0  0  0  0  0  0  0  0  0  0
   65.2115   38.9438   25.3147 C   0  0  0  0  0  0  0  0  0  0  0  0
   65.5583   37.4479   25.2794 C   0  0  0  0  0  0  0  0  0  0  0  0
   65.3975   37.3316   22.7737 C   0  0  0  0  0  0  0  0  0  0  0  0
   66.9055   37.4785   22.5086 C   0  0  0  0  0  0  0  0  0  0  0  0
   64.4710   35.5118   24.1498 C   0  0  0  0  0  0  0  0  0  0  0  0
   63.8131   35.0389   23.2223 O   0  0  0  0  0  0  0  0  0  0  0  0
   67.3627   33.2824   27.5403 O   0  0  0  0  0  0  0  0  0  0  0  0
   65.0876   36.7243   24.0811 N   0  0  0  0  0  0  0  0  0  0  0  0
   68.5261   33.7212   26.8496 C   0  0  0  0  0  0  0  0  0  0  0  0
  1  2  2  0
  1  6  1  0
  1  7  1  0
  2  3  1  0
  2 14  1  0
  3  4  2  0
  4  5  1  0
  4 12  1  0
  5  6  2  0
  8  9  1  0
  9 15  1  0
 10 11  1  0
 10 15  1  0
 12 13  2  0
 12 15  1  0
 14 16  1  0
M  END
$$$$
