7EPV - prepared_ligand
     RDKit          3D

 86 91  0  0  1  0  0  0  0  0999 V2000
    4.6222  -30.3299   -6.2977 P   0  0  2  0  0  0  0  0  0  0  0  0
    5.8854  -29.5024   -6.4074 O   0  0  0  0  0  0  0  0  0  0  0  0
    4.5697  -31.6437   -5.5548 O   0  0  0  0  0  0  0  0  0  0  0  0
    3.9603  -30.5836   -7.8623 O   0  0  0  0  0  0  0  0  0  0  0  0
    4.0305  -29.5308   -8.8060 C   0  0  0  0  0  0  0  0  0  0  0  0
    4.0712  -30.1800  -10.1955 C   0  0  1  0  0  0  0  0  0  0  0  0
    4.2374  -29.1742  -11.1862 O   0  0  0  0  0  0  0  0  0  0  0  0
    5.2337  -31.1681  -10.4001 C   0  0  1  0  0  0  0  0  0  0  0  0
    4.7844  -32.4299  -10.8666 O   0  0  0  0  0  0  0  0  0  0  0  0
    6.2078  -30.4453  -11.3318 C   0  0  1  0  0  0  0  0  0  0  0  0
    6.9366  -31.2576  -12.2323 O   0  0  0  0  0  0  0  0  0  0  0  0
    5.2594  -29.5041  -12.0683 C   0  0  2  0  0  0  0  0  0  0  0  0
    5.8420  -28.2603  -12.7092 N   0  0  0  0  0  0  0  0  0  0  0  0
    6.8393  -27.4706  -12.2595 C   0  0  0  0  0  0  0  0  0  0  0  0
    7.0783  -26.4328  -13.0217 N   0  0  0  0  0  0  0  0  0  0  0  0
    6.1793  -26.5364  -14.0131 C   0  0  0  0  0  0  0  0  0  0  0  0
    5.8879  -25.6885  -15.1067 C   0  0  0  0  0  0  0  0  0  0  0  0
    6.5795  -24.5076  -15.3618 N   0  0  0  0  0  0  0  0  0  0  0  0
    4.8667  -26.0318  -15.9338 N   0  0  0  0  0  0  0  0  0  0  0  0
    4.2155  -27.1755  -15.6861 C   0  0  0  0  0  0  0  0  0  0  0  0
    4.4018  -28.0608  -14.6948 N   0  0  0  0  0  0  0  0  0  0  0  0
    5.4039  -27.6744  -13.8666 C   0  0  0  0  0  0  0  0  0  0  0  0
    4.4858  -32.5799    3.2150 N   0  0  0  0  0  0  0  0  0  0  0  0
    3.6920  -33.3942    3.9636 C   0  0  0  0  0  0  0  0  0  0  0  0
    2.4709  -33.2728    3.9940 O   0  0  0  0  0  0  0  0  0  0  0  0
    4.3801  -34.3676    4.6379 N   0  0  0  0  0  0  0  0  0  0  0  0
    5.7214  -34.6302    4.6541 C   0  0  0  0  0  0  0  0  0  0  0  0
    6.2126  -35.5343    5.3261 O   0  0  0  0  0  0  0  0  0  0  0  0
    6.4749  -33.7214    3.7976 C   0  0  0  0  0  0  0  0  0  0  0  0
    7.8417  -33.8703    3.7254 N   0  0  0  0  0  0  0  0  0  0  0  0
    8.6128  -33.0419    2.8956 C   0  0  0  0  0  0  0  0  0  0  0  0
    9.9972  -33.1931    2.8651 C   0  0  0  0  0  0  0  0  0  0  0  0
   10.7784  -32.3479    2.0765 C   0  0  0  0  0  0  0  0  0  0  0  0
   12.2929  -32.4757    2.1277 C   0  0  0  0  0  0  0  0  0  0  0  0
   10.1570  -31.3841    1.2687 C   0  0  0  0  0  0  0  0  0  0  0  0
   10.9739  -30.4599    0.3777 C   0  0  0  0  0  0  0  0  0  0  0  0
    8.7660  -31.2461    1.2949 C   0  0  0  0  0  0  0  0  0  0  0  0
    7.9654  -32.0359    2.1361 C   0  0  0  0  0  0  0  0  0  0  0  0
    6.5572  -31.8164    2.3214 N   0  0  0  0  0  0  0  0  0  0  0  0
    5.8445  -32.7379    3.1110 C   0  0  0  0  0  0  0  0  0  0  0  0
    5.8253  -30.8950    1.4270 C   0  0  0  0  0  0  0  0  0  0  0  0
    5.1135  -31.5411    0.2118 C   0  0  2  0  0  0  0  0  0  0  0  0
    6.0838  -32.2365   -0.5401 O   0  0  0  0  0  0  0  0  0  0  0  0
    4.3778  -30.5068   -0.6806 C   0  0  2  0  0  0  0  0  0  0  0  0
    3.5538  -29.6921    0.1344 O   0  0  0  0  0  0  0  0  0  0  0  0
    3.5305  -31.0528   -1.8689 C   0  0  2  0  0  0  0  0  0  0  0  0
    4.3198  -31.8649   -2.7182 O   0  0  0  0  0  0  0  0  0  0  0  0
    2.9282  -29.9218   -2.7287 C   0  0  0  0  0  0  0  0  0  0  0  0
    2.1065  -30.4550   -3.7477 O   0  0  0  0  0  0  0  0  0  0  0  0
    1.7904  -29.4370   -5.0993 P   0  0  1  0  0  0  0  0  0  0  0  0
    0.9562  -30.2256   -6.0820 O   0  0  0  0  0  0  0  0  0  0  0  0
    1.4021  -28.0674   -4.5904 O   0  0  0  0  0  0  0  0  0  0  0  0
    3.3835  -29.3389   -5.6912 O   0  0  0  0  0  0  0  0  0  0  0  0
    4.9151  -28.9075   -8.6704 H   0  0  0  0  0  0  0  0  0  0  0  0
    3.1579  -28.8896   -8.6955 H   0  0  0  0  0  0  0  0  0  0  0  0
    3.1132  -30.6636  -10.3796 H   0  0  0  0  0  0  0  0  0  0  0  0
    5.7515  -31.3616   -9.4591 H   0  0  0  0  0  0  0  0  0  0  0  0
    4.3238  -32.3054  -11.7063 H   0  0  0  0  0  0  0  0  0  0  0  0
    6.8890  -29.8378  -10.7366 H   0  0  0  0  0  0  0  0  0  0  0  0
    6.3145  -31.7191  -12.8098 H   0  0  0  0  0  0  0  0  0  0  0  0
    4.7698  -30.0422  -12.8799 H   0  0  0  0  0  0  0  0  0  0  0  0
    7.3545  -27.6998  -11.3380 H   0  0  0  0  0  0  0  0  0  0  0  0
    6.3089  -23.9338  -16.1495 H   0  0  0  0  0  0  0  0  0  0  0  0
    7.3674  -24.2588  -14.7801 H   0  0  0  0  0  0  0  0  0  0  0  0
    3.4386  -27.4188  -16.3926 H   0  0  0  0  0  0  0  0  0  0  0  0
    4.0310  -31.8129    2.7465 H   0  0  0  0  0  0  0  0  0  0  0  0
    3.8150  -34.9840    5.2050 H   0  0  0  0  0  0  0  0  0  0  0  0
    8.3027  -34.5447    4.3198 H   0  0  0  0  0  0  0  0  0  0  0  0
   10.4699  -33.9429    3.4832 H   0  0  0  0  0  0  0  0  0  0  0  0
   12.6962  -32.5670    1.1203 H   0  0  0  0  0  0  0  0  0  0  0  0
   12.7339  -31.5848    2.5757 H   0  0  0  0  0  0  0  0  0  0  0  0
   12.6165  -33.3461    2.6998 H   0  0  0  0  0  0  0  0  0  0  0  0
   10.3591  -29.7232   -0.1387 H   0  0  0  0  0  0  0  0  0  0  0  0
   11.7114  -29.9182    0.9707 H   0  0  0  0  0  0  0  0  0  0  0  0
   11.5108  -31.0402   -0.3729 H   0  0  0  0  0  0  0  0  0  0  0  0
    8.3390  -30.4816    0.6697 H   0  0  0  0  0  0  0  0  0  0  0  0
    6.4509  -30.0694    1.0980 H   0  0  0  0  0  0  0  0  0  0  0  0
    5.1132  -30.3500    2.0425 H   0  0  0  0  0  0  0  0  0  0  0  0
    4.3874  -32.2713    0.5630 H   0  0  0  0  0  0  0  0  0  0  0  0
    6.6544  -31.5991   -0.9848 H   0  0  0  0  0  0  0  0  0  0  0  0
    5.1478  -29.8578   -1.0924 H   0  0  0  0  0  0  0  0  0  0  0  0
    3.4128  -28.8555   -0.3249 H   0  0  0  0  0  0  0  0  0  0  0  0
    2.7201  -31.6729   -1.4852 H   0  0  0  0  0  0  0  0  0  0  0  0
    3.9835  -31.7954   -3.6203 H   0  0  0  0  0  0  0  0  0  0  0  0
    3.7339  -29.3234   -3.1570 H   0  0  0  0  0  0  0  0  0  0  0  0
    2.3187  -29.2491   -2.1254 H   0  0  0  0  0  0  0  0  0  0  0  0
  1  2  2  0
  1  3  1  1
  1  4  1  0
  1 53  1  0
  4  5  1  0
  5  6  1  0
  5 54  1  0
  5 55  1  0
  6  7  1  0
  6  8  1  0
  6 56  1  6
  7 12  1  0
  8  9  1  0
  8 10  1  0
  8 57  1  1
  9 58  1  0
 10 11  1  0
 10 12  1  0
 10 59  1  1
 11 60  1  0
 12 13  1  0
 12 61  1  6
 13 14  1  0
 13 22  1  0
 14 15  2  0
 14 62  1  0
 15 16  1  0
 16 17  1  0
 16 22  2  0
 17 18  1  0
 17 19  2  0
 18 63  1  0
 18 64  1  0
 19 20  1  0
 20 21  2  0
 20 65  1  0
 21 22  1  0
 23 24  1  0
 23 40  1  0
 23 66  1  0
 24 25  2  0
 24 26  1  0
 26 27  1  0
 26 67  1  0
 27 28  2  0
 27 29  1  0
 29 30  1  0
 29 40  2  0
 30 31  1  0
 30 68  1  0
 31 32  2  0
 31 38  1  0
 32 33  1  0
 32 69  1  0
 33 34  1  0
 33 35  2  0
 34 70  1  0
 34 71  1  0
 34 72  1  0
 35 36  1  0
 35 37  1  0
 36 73  1  0
 36 74  1  0
 36 75  1  0
 37 38  2  0
 37 76  1  0
 38 39  1  0
 39 40  1  0
 39 41  1  0
 41 42  1  0
 41 77  1  0
 41 78  1  0
 42 43  1  0
 42 44  1  0
 42 79  1  1
 43 80  1  0
 44 45  1  0
 44 46  1  0
 44 81  1  6
 45 82  1  0
 46 47  1  0
 46 48  1  0
 46 83  1  1
 47 84  1  0
 48 49  1  0
 48 85  1  0
 48 86  1  0
 49 50  1  0
 50 51  2  0
 50 52  1  1
 50 53  1  0
M  CHG  2   3  -1  52  -1
M  END
$$$$
