7C0U - prepared_ligand3
     RDKit          3D

 70 75  0  0  1  0  0  0  0  0999 V2000
   14.0143   -5.2055    6.6661 C   0  0  1  0  0  0  0  0  0  0  0  0
   13.6235   -3.7054    8.3547 C   0  0  1  0  0  0  0  0  0  0  0  0
   14.1279   -2.7378   10.6720 C   0  0  0  0  0  0  0  0  0  0  0  0
   14.8716   -1.6790   11.1157 C   0  0  0  0  0  0  0  0  0  0  0  0
   15.1164   -1.7236    9.0418 C   0  0  0  0  0  0  0  0  0  0  0  0
   14.8850   -1.3521   12.5240 C   0  0  0  0  0  0  0  0  0  0  0  0
   13.4293   -3.3398   12.6862 C   0  0  0  0  0  0  0  0  0  0  0  0
   12.8709   -3.0856    7.1840 C   0  0  1  0  0  0  0  0  0  0  0  0
   13.0727   -4.1346    6.1022 C   0  0  2  0  0  0  0  0  0  0  0  0
   11.3528   -2.9583    7.3858 C   0  0  0  0  0  0  0  0  0  0  0  0
   17.5382   -8.5991    6.3001 O   0  0  0  0  0  0  0  0  0  0  0  0
   16.8783   -7.5924    5.3868 P   0  0  1  0  0  0  0  0  0  0  0  0
   17.6499   -6.7469    4.4030 O   0  0  0  0  0  0  0  0  0  0  0  0
   15.5882   -8.3799    4.5454 O   0  0  0  0  0  0  0  0  0  0  0  0
   14.7667   -9.2911    5.2761 C   0  0  2  0  0  0  0  0  0  0  0  0
   15.2157  -10.7232    4.9524 C   0  0  1  0  0  0  0  0  0  0  0  0
   15.1591  -11.6962    6.1481 C   0  0  0  0  0  0  0  0  0  0  0  0
   13.8573  -11.8395    6.6818 O   0  0  0  0  0  0  0  0  0  0  0  0
   14.3380  -11.1542    3.9070 O   0  0  0  0  0  0  0  0  0  0  0  0
   13.5204  -10.0945    3.4970 C   0  0  1  0  0  0  0  0  0  0  0  0
   12.3116  -10.5847    2.8425 N   0  0  0  0  0  0  0  0  0  0  0  0
   11.4885  -11.4599    3.5130 C   0  0  0  0  0  0  0  0  0  0  0  0
   10.3851  -12.0073    2.9666 C   0  0  0  0  0  0  0  0  0  0  0  0
   10.0294  -11.6776    1.5975 C   0  0  0  0  0  0  0  0  0  0  0  0
    9.0524  -12.1303    1.0043 O   0  0  0  0  0  0  0  0  0  0  0  0
   10.9059  -10.8047    1.0206 N   0  0  0  0  0  0  0  0  0  0  0  0
   12.0335  -10.2194    1.5375 C   0  0  0  0  0  0  0  0  0  0  0  0
   12.6868   -9.4442    0.8434 O   0  0  0  0  0  0  0  0  0  0  0  0
   13.3394   -9.2508    4.7526 C   0  0  2  0  0  0  0  0  0  0  0  0
   12.7794   -7.9807    4.5089 O   0  0  0  0  0  0  0  0  0  0  0  0
   15.9503   -6.5395    6.3682 O   0  0  0  0  0  0  0  0  0  0  0  0
   15.1607   -5.5653    5.7163 C   0  0  0  0  0  0  0  0  0  0  0  0
   11.6657   -4.6314    5.7217 C   0  0  0  0  0  0  0  0  0  0  0  0
   10.7430   -4.2777    6.8950 C   0  0  0  0  0  0  0  0  0  0  0  0
   10.7641   -5.2673    7.9012 O   0  0  0  0  0  0  0  0  0  0  0  0
    9.3931   -4.1452    6.5176 O   0  0  0  0  0  0  0  0  0  0  0  0
   14.5559   -4.5831    7.8188 O   0  0  0  0  0  0  0  0  0  0  0  0
   14.2743   -2.7416    9.3149 N   0  0  0  0  0  0  0  0  0  0  0  0
   15.4960   -1.0600   10.1047 N   0  0  0  0  0  0  0  0  0  0  0  0
   13.3828   -3.6015   11.4228 N   0  0  0  0  0  0  0  0  0  0  0  0
   12.7497   -4.0692   13.5716 N   0  0  0  0  0  0  0  0  0  0  0  0
   14.1551   -2.2846   13.2114 N   0  0  0  0  0  0  0  0  0  0  0  0
   15.4159   -0.3947   13.0754 O   0  0  0  0  0  0  0  0  0  0  0  0
   13.4902   -6.1085    6.9813 H   0  0  0  0  0  0  0  0  0  0  0  0
   12.9501   -4.3291    8.9449 H   0  0  0  0  0  0  0  0  0  0  0  0
   15.4187   -1.5125    8.0274 H   0  0  0  0  0  0  0  0  0  0  0  0
   13.3309   -2.1327    6.9192 H   0  0  0  0  0  0  0  0  0  0  0  0
   13.5378   -3.6376    5.2514 H   0  0  0  0  0  0  0  0  0  0  0  0
   10.9929   -2.1358    6.7673 H   0  0  0  0  0  0  0  0  0  0  0  0
   11.0865   -2.7243    8.4105 H   0  0  0  0  0  0  0  0  0  0  0  0
   14.8044   -9.0480    6.3371 H   0  0  0  0  0  0  0  0  0  0  0  0
   16.2346  -10.7184    4.5723 H   0  0  0  0  0  0  0  0  0  0  0  0
   15.8169  -11.3405    6.9410 H   0  0  0  0  0  0  0  0  0  0  0  0
   15.5384  -12.6749    5.8618 H   0  0  0  0  0  0  0  0  0  0  0  0
   13.6231  -12.7751    6.6569 H   0  0  0  0  0  0  0  0  0  0  0  0
   14.0983   -9.5322    2.7565 H   0  0  0  0  0  0  0  0  0  0  0  0
   11.8139  -11.6814    4.5197 H   0  0  0  0  0  0  0  0  0  0  0  0
    9.7695  -12.6934    3.5281 H   0  0  0  0  0  0  0  0  0  0  0  0
   10.6956  -10.5510    0.0657 H   0  0  0  0  0  0  0  0  0  0  0  0
   12.6871   -9.7924    5.4386 H   0  0  0  0  0  0  0  0  0  0  0  0
   12.5373   -7.6047    5.3611 H   0  0  0  0  0  0  0  0  0  0  0  0
   15.7657   -4.6962    5.4671 H   0  0  0  0  0  0  0  0  0  0  0  0
   14.7483   -5.9517    4.7832 H   0  0  0  0  0  0  0  0  0  0  0  0
   11.6267   -5.6915    5.4742 H   0  0  0  0  0  0  0  0  0  0  0  0
   11.3611   -4.0862    4.8290 H   0  0  0  0  0  0  0  0  0  0  0  0
   10.0994   -5.0325    8.5521 H   0  0  0  0  0  0  0  0  0  0  0  0
    9.3345   -3.4644    5.8415 H   0  0  0  0  0  0  0  0  0  0  0  0
   12.8038   -3.8509   14.5605 H   0  0  0  0  0  0  0  0  0  0  0  0
   12.1920   -4.8543   13.2709 H   0  0  0  0  0  0  0  0  0  0  0  0
   14.1192   -2.1493   14.2118 H   0  0  0  0  0  0  0  0  0  0  0  0
  1  9  1  0
  1 32  1  0
  1 37  1  0
  1 44  1  1
  2  8  1  0
  2 37  1  0
  2 38  1  0
  2 45  1  1
  3  4  2  0
  3 38  1  0
  3 40  1  0
  4  6  1  0
  4 39  1  0
  5 38  1  0
  5 39  2  0
  5 46  1  0
  6 42  1  0
  6 43  2  0
  7 40  2  0
  7 41  1  0
  7 42  1  0
  8  9  1  0
  8 10  1  0
  8 47  1  6
  9 33  1  0
  9 48  1  6
 10 34  1  0
 10 49  1  0
 10 50  1  0
 11 12  2  0
 12 13  1  6
 12 14  1  0
 12 31  1  0
 14 15  1  0
 15 16  1  0
 15 29  1  0
 15 51  1  1
 16 17  1  0
 16 19  1  0
 16 52  1  6
 17 18  1  0
 17 53  1  0
 17 54  1  0
 18 55  1  0
 19 20  1  0
 20 21  1  0
 20 29  1  0
 20 56  1  6
 21 22  1  0
 21 27  1  0
 22 23  2  0
 22 57  1  0
 23 24  1  0
 23 58  1  0
 24 25  2  0
 24 26  1  0
 26 27  1  0
 26 59  1  0
 27 28  2  0
 29 30  1  0
 29 60  1  1
 30 61  1  0
 31 32  1  0
 32 62  1  0
 32 63  1  0
 33 34  1  0
 33 64  1  0
 33 65  1  0
 34 35  1  0
 34 36  1  0
 35 66  1  0
 36 67  1  0
 41 68  1  0
 41 69  1  0
 42 70  1  0
M  CHG  1  13  -1
M  END
$$$$
