7ZZB - prepared_ligand
     RDKit          3D

 87 92  0  0  1  0  0  0  0  0999 V2000
   15.7175    5.4387   11.0644 N   0  0  0  0  0  0  0  0  0  0  0  0
   18.6344    7.6570   15.7288 C   0  0  1  0  0  0  0  0  0  0  0  0
   18.7053   11.1615   12.8694 C   0  0  0  0  0  0  0  0  0  0  0  0
   16.2780    6.7635   12.7725 N   0  0  0  0  0  0  0  0  0  0  0  0
   17.3129   10.9263   12.9882 C   0  0  0  0  0  0  0  0  0  0  0  0
   18.7682    8.0966   13.4321 O   0  0  0  0  0  0  0  0  0  0  0  0
   15.1658    4.2434   10.4217 C   0  0  0  0  0  0  0  0  0  0  0  0
   14.9023   11.3483    8.3798 O   0  0  0  0  0  0  0  0  0  0  0  0
   19.5517    9.0322   14.1130 C   0  0  2  0  0  0  0  0  0  0  0  0
   18.9299    9.1358   15.4935 C   0  0  2  0  0  0  0  0  0  0  0  0
   19.6679   10.3354   13.3394 N   0  0  0  0  0  0  0  0  0  0  0  0
   18.2011    7.1507   14.3434 C   0  0  2  0  0  0  0  0  0  0  0  0
   16.1810    8.5090   10.1460 O   0  0  0  0  0  0  0  0  0  0  0  0
   16.6729    7.1198   14.1369 C   0  0  0  0  0  0  0  0  0  0  0  0
   19.8184    9.7698   16.3943 O   0  0  0  0  0  0  0  0  0  0  0  0
   16.0764    5.5034   12.3556 C   0  0  0  0  0  0  0  0  0  0  0  0
   14.2833    9.2411   12.3628 N   0  0  0  0  0  0  0  0  0  0  0  0
   13.0790    3.6578    9.1007 N   0  0  0  0  0  0  0  0  0  0  0  0
   13.6205    4.2373   10.4149 C   0  0  0  0  0  0  0  0  0  0  0  0
   16.1806    4.5162   13.0866 O   0  0  0  0  0  0  0  0  0  0  0  0
   16.1245   10.6821   13.1155 C   0  0  0  0  0  0  0  0  0  0  0  0
   14.6941   10.3640   13.2297 C   0  0  0  0  0  0  0  0  0  0  0  0
   14.0935    9.5414   10.9288 C   0  0  0  0  0  0  0  0  0  0  0  0
   15.4164    9.7161   10.1480 C   0  0  2  0  0  0  0  0  0  0  0  0
   16.9934    8.4383    9.0070 C   0  0  2  0  0  0  0  0  0  0  0  0
   16.6269    9.6216    8.1109 C   0  0  1  0  0  0  0  0  0  0  0  0
   15.2585   10.0045    8.6600 C   0  0  2  0  0  0  0  0  0  0  0  0
   16.0315    6.5253    7.5548 C   0  0  0  0  0  0  0  0  0  0  0  0
   17.5547    5.0861    7.6266 C   0  0  0  0  0  0  0  0  0  0  0  0
   17.9742    6.1391    8.4203 C   0  0  0  0  0  0  0  0  0  0  0  0
   19.9153    5.1270    8.8551 C   0  0  0  0  0  0  0  0  0  0  0  0
   18.4386    3.9885    7.4874 C   0  0  0  0  0  0  0  0  0  0  0  0
   13.1565    8.4770   12.9442 C   0  0  0  0  0  0  0  0  0  0  0  0
   11.8170    9.2202   13.2242 C   0  0  0  0  0  0  0  0  0  0  0  0
   20.4925   12.1247   12.3792 C   0  0  0  0  0  0  0  0  0  0  0  0
   20.8462   10.9510   13.0251 C   0  0  0  0  0  0  0  0  0  0  0  0
   23.0151   11.4220   12.8441 C   0  0  0  0  0  0  0  0  0  0  0  0
   21.5421   12.9684   11.9525 C   0  0  0  0  0  0  0  0  0  0  0  0
   19.1595   12.2391   12.2807 N   0  0  0  0  0  0  0  0  0  0  0  0
   22.1110   10.5428   13.2944 N   0  0  0  0  0  0  0  0  0  0  0  0
   22.8177   12.5780   12.2001 N   0  0  0  0  0  0  0  0  0  0  0  0
   21.3423   14.1704   11.2787 N   0  0  0  0  0  0  0  0  0  0  0  0
   16.9712    7.0672    8.3550 N   0  0  0  0  0  0  0  0  0  0  0  0
   16.3388    5.3306    7.1108 N   0  0  0  0  0  0  0  0  0  0  0  0
   19.1611    6.2150    9.0700 N   0  0  0  0  0  0  0  0  0  0  0  0
   19.6423    4.0411    8.1198 N   0  0  0  0  0  0  0  0  0  0  0  0
   18.1441    2.8604    6.7268 N   0  0  0  0  0  0  0  0  0  0  0  0
   19.7407    6.9194   16.2227 O   0  0  0  0  0  0  0  0  0  0  0  0
   17.6172   10.6159    8.3014 O   0  0  0  0  0  0  0  0  0  0  0  0
   10.9464    8.5529   13.8241 O   0  0  0  0  0  0  0  0  0  0  0  0
   11.6473   10.4090   12.8681 O   0  0  0  0  0  0  0  0  0  0  0  0
   15.8519    6.2541   10.4835 H   0  0  0  0  0  0  0  0  0  0  0  0
   17.8279    7.5637   16.4579 H   0  0  0  0  0  0  0  0  0  0  0  0
   16.1016    7.5303   12.1374 H   0  0  0  0  0  0  0  0  0  0  0  0
   15.5295    3.3376   10.9133 H   0  0  0  0  0  0  0  0  0  0  0  0
   15.5859    4.1985    9.4181 H   0  0  0  0  0  0  0  0  0  0  0  0
   14.1324   11.5804    8.9061 H   0  0  0  0  0  0  0  0  0  0  0  0
   20.5558    8.6044   14.1828 H   0  0  0  0  0  0  0  0  0  0  0  0
   17.9972    9.6947   15.4158 H   0  0  0  0  0  0  0  0  0  0  0  0
   18.6052    6.1566   14.1387 H   0  0  0  0  0  0  0  0  0  0  0  0
   16.2341    6.4118   14.8437 H   0  0  0  0  0  0  0  0  0  0  0  0
   16.2344    8.0814   14.4009 H   0  0  0  0  0  0  0  0  0  0  0  0
   19.8929   10.7012   16.1489 H   0  0  0  0  0  0  0  0  0  0  0  0
   12.0684    3.6553    9.1112 H   0  0  0  0  0  0  0  0  0  0  0  0
   13.3916    4.2098    8.3140 H   0  0  0  0  0  0  0  0  0  0  0  0
   13.4021    2.7085    8.9794 H   0  0  0  0  0  0  0  0  0  0  0  0
   13.1738    5.2307   10.4866 H   0  0  0  0  0  0  0  0  0  0  0  0
   13.2013    3.5881   11.1852 H   0  0  0  0  0  0  0  0  0  0  0  0
   14.5398   10.1113   14.2792 H   0  0  0  0  0  0  0  0  0  0  0  0
   14.1173   11.2642   13.0245 H   0  0  0  0  0  0  0  0  0  0  0  0
   13.4885   10.4438   10.8322 H   0  0  0  0  0  0  0  0  0  0  0  0
   13.5214    8.7412   10.4591 H   0  0  0  0  0  0  0  0  0  0  0  0
   16.0119   10.5207   10.5688 H   0  0  0  0  0  0  0  0  0  0  0  0
   18.0119    8.5559    9.3865 H   0  0  0  0  0  0  0  0  0  0  0  0
   16.5709    9.3163    7.0653 H   0  0  0  0  0  0  0  0  0  0  0  0
   14.5089    9.3365    8.2330 H   0  0  0  0  0  0  0  0  0  0  0  0
   15.1277    7.0683    7.3258 H   0  0  0  0  0  0  0  0  0  0  0  0
   20.8794    5.1292    9.3425 H   0  0  0  0  0  0  0  0  0  0  0  0
   13.5059    8.0506   13.8861 H   0  0  0  0  0  0  0  0  0  0  0  0
   12.9511    7.6111   12.3125 H   0  0  0  0  0  0  0  0  0  0  0  0
   24.0479   11.1700   13.0316 H   0  0  0  0  0  0  0  0  0  0  0  0
   22.1450   14.7115   10.9855 H   0  0  0  0  0  0  0  0  0  0  0  0
   20.4024   14.4567   11.0432 H   0  0  0  0  0  0  0  0  0  0  0  0
   18.8220    2.1138    6.6786 H   0  0  0  0  0  0  0  0  0  0  0  0
   17.2572    2.7991    6.2491 H   0  0  0  0  0  0  0  0  0  0  0  0
   19.4825    5.9975   16.3024 H   0  0  0  0  0  0  0  0  0  0  0  0
   17.9256   10.9125    7.4381 H   0  0  0  0  0  0  0  0  0  0  0  0
  1  7  1  0
  1 16  1  0
  1 52  1  0
  2 10  1  0
  2 12  1  0
  2 48  1  0
  2 53  1  1
  3  5  1  0
  3 11  1  0
  3 39  2  0
  4 14  1  0
  4 16  1  0
  4 54  1  0
  5 21  3  0
  6  9  1  0
  6 12  1  0
  7 19  1  0
  7 55  1  0
  7 56  1  0
  8 27  1  0
  8 57  1  0
  9 10  1  0
  9 11  1  0
  9 58  1  1
 10 15  1  0
 10 59  1  6
 11 36  1  0
 12 14  1  0
 12 60  1  6
 13 24  1  0
 13 25  1  0
 14 61  1  0
 14 62  1  0
 15 63  1  0
 16 20  2  0
 17 22  1  0
 17 23  1  0
 17 33  1  0
 18 19  1  0
 18 64  1  0
 18 65  1  0
 18 66  1  0
 19 67  1  0
 19 68  1  0
 21 22  1  0
 22 69  1  0
 22 70  1  0
 23 24  1  0
 23 71  1  0
 23 72  1  0
 24 27  1  0
 24 73  1  1
 25 26  1  0
 25 43  1  0
 25 74  1  1
 26 27  1  0
 26 49  1  0
 26 75  1  6
 27 76  1  6
 28 43  1  0
 28 44  2  0
 28 77  1  0
 29 30  2  0
 29 32  1  0
 29 44  1  0
 30 43  1  0
 30 45  1  0
 31 45  2  0
 31 46  1  0
 31 78  1  0
 32 46  2  0
 32 47  1  0
 33 34  1  0
 33 79  1  0
 33 80  1  0
 34 50  1  0
 34 51  2  0
 35 36  2  0
 35 38  1  0
 35 39  1  0
 36 40  1  0
 37 40  2  0
 37 41  1  0
 37 81  1  0
 38 41  2  0
 38 42  1  0
 42 82  1  0
 42 83  1  0
 47 84  1  0
 47 85  1  0
 48 86  1  0
 49 87  1  0
M  CHG  2  18   1  50  -1
M  END
$$$$
