4JFS_ligand
     RDKit          3D

 17 18  0  0  1  0  0  0  0  0999 V2000
  -29.3298  -20.1996  -18.4225 C   0  0  0  0  0  0  0  0  0  0  0  0
  -29.5556  -19.7146  -17.1039 O   0  0  0  0  0  0  0  0  0  0  0  0
  -28.4724  -19.3653  -16.3216 C   0  0  0  0  0  0  0  0  0  0  0  0
  -27.1352  -19.4478  -16.7398 C   0  0  0  0  0  0  0  0  0  0  0  0
  -26.1078  -19.0797  -15.8777 C   0  0  0  0  0  0  0  0  0  0  0  0
  -28.7572  -18.9030  -15.0377 C   0  0  0  0  0  0  0  0  0  0  0  0
  -27.7292  -18.5405  -14.1734 C   0  0  0  0  0  0  0  0  0  0  0  0
  -26.4009  -18.6279  -14.5873 C   0  0  0  0  0  0  0  0  0  0  0  0
  -25.2925  -18.2208  -13.6121 C   0  0  1  0  0  0  0  0  0  0  0  0
  -24.0890  -19.1656  -13.4768 C   0  0  2  0  0  0  0  0  0  0  0  0
  -24.3308  -20.2676  -12.6283 O   0  0  0  0  0  0  0  0  0  0  0  0
  -22.9162  -18.2601  -13.0991 C   0  0  2  0  0  0  0  0  0  0  0  0
  -22.8955  -17.9544  -11.7154 O   0  0  0  0  0  0  0  0  0  0  0  0
  -23.1473  -17.0326  -13.9943 C   0  0  2  0  0  0  0  0  0  0  0  0
  -22.2655  -15.8126  -13.6759 C   0  0  0  0  0  0  0  0  0  0  0  0
  -24.6728  -16.8248  -13.8973 N   0  0  1  0  0  0  0  0  0  0  0  0
  -25.2518  -16.0010  -15.0562 C   0  0  0  0  0  0  0  0  0  0  0  0
  1  2  1  0
  2  3  1  0
  3  4  2  0
  3  6  1  0
  4  5  1  0
  5  8  2  0
  6  7  2  0
  7  8  1  0
  9  8  1  6
  9 10  1  0
  9 16  1  0
 10 11  1  1
 10 12  1  0
 12 13  1  1
 12 14  1  0
 14 15  1  1
 14 16  1  0
 16 17  1  6
M  CHG  1  16   1
M  END
$$$$
