4J21_ligand
     RDKit          3D

 20 22  0  0  1  0  0  0  0  0999 V2000
  -12.3322    1.8828   14.3012 C   0  0  0  0  0  0  0  0  0  0  0  0
  -11.9631    2.6245   11.9865 C   0  0  0  0  0  0  0  0  0  0  0  0
  -11.7023    3.1964    9.6446 C   0  0  0  0  0  0  0  0  0  0  0  0
  -10.1361    2.9740    6.2083 C   0  0  0  0  0  0  0  0  0  0  0  0
  -12.4302    2.0432    7.4977 C   0  0  0  0  0  0  0  0  0  0  0  0
  -11.9710    4.9438   11.3231 C   0  0  0  0  0  0  0  0  0  0  0  0
  -12.0614    3.9836   12.3329 C   0  0  0  0  0  0  0  0  0  0  0  0
  -12.3482    5.7632   14.2097 C   0  0  0  0  0  0  0  0  0  0  0  0
  -12.2645    4.3065   13.7740 C   0  0  0  0  0  0  0  0  0  0  0  0
  -12.3604    3.2889   14.6635 C   0  0  0  0  0  0  0  0  0  0  0  0
  -12.5571    0.9684   15.0837 O   0  0  0  0  0  0  0  0  0  0  0  0
  -12.0827    1.6566   12.9923 N   0  0  0  0  0  0  0  0  0  0  0  0
  -11.7864    2.2351   10.6569 C   0  0  0  0  0  0  0  0  0  0  0  0
  -11.4982    2.8135    8.2199 C   0  0  0  0  0  0  0  0  0  0  0  0
  -10.3504    3.2637    7.5535 C   0  0  0  0  0  0  0  0  0  0  0  0
  -11.0785    2.2360    5.4981 C   0  0  0  0  0  0  0  0  0  0  0  0
  -10.8800    1.9790    4.1434 N   0  0  0  0  0  0  0  0  0  0  0  0
  -12.2202    1.7651    6.1451 C   0  0  0  0  0  0  0  0  0  0  0  0
  -13.8829    1.4543    8.2259 Cl  0  0  0  0  0  0  0  0  0  0  0  0
  -11.7983    4.5470    9.9979 C   0  0  0  0  0  0  0  0  0  0  0  0
  1 10  1  0
  1 11  2  0
  1 12  1  0
  2  7  2  0
  2 12  1  0
  2 13  1  0
  3 13  2  0
  3 14  1  0
  3 20  1  0
  4 15  2  0
  4 16  1  0
  5 14  2  0
  5 18  1  0
  5 19  1  0
  6  7  1  0
  6 20  2  0
  7  9  1  0
  8  9  1  0
  9 10  2  0
 14 15  1  0
 16 17  1  0
 16 18  2  0
M  END
$$$$
