7A1P - prepared_ligand
     RDKit          3D

 23 22  0  0  1  0  0  0  0  0999 V2000
   18.7285  -24.8361    6.3655 C   0  0  0  0  0  0  0  0  0  0  0  0
   20.1314  -24.8687    5.7317 C   0  0  0  0  0  0  0  0  0  0  0  0
   20.1463  -24.2611    4.3259 C   0  0  0  0  0  0  0  0  0  0  0  0
   22.2306  -24.9104    9.2123 C   0  0  0  0  0  0  0  0  0  0  0  0
   17.1286  -25.2283    8.2678 C   0  0  0  0  0  0  0  0  0  0  0  0
   18.5719  -25.4996    7.7683 C   0  0  2  0  0  0  0  0  0  0  0  0
   19.6136  -25.0401    8.8346 C   0  0  0  0  0  0  0  0  0  0  0  0
   21.0024  -25.6867    8.7679 C   0  0  0  0  0  0  0  0  0  0  0  0
   21.1316  -26.8287    8.3178 O   0  0  0  0  0  0  0  0  0  0  0  0
   23.3429  -25.4533    9.0185 O   0  0  0  0  0  0  0  0  0  0  0  0
   22.0330  -23.7898    9.7343 O   0  0  0  0  0  0  0  0  0  0  0  0
   16.2100  -25.9216    7.7825 O   0  0  0  0  0  0  0  0  0  0  0  0
   16.9182  -24.3058    9.0850 O   0  0  0  0  0  0  0  0  0  0  0  0
   18.0360  -25.3166    5.6709 H   0  0  0  0  0  0  0  0  0  0  0  0
   18.4089  -23.7959    6.4196 H   0  0  0  0  0  0  0  0  0  0  0  0
   20.4932  -25.8969    5.6856 H   0  0  0  0  0  0  0  0  0  0  0  0
   20.8383  -24.3125    6.3480 H   0  0  0  0  0  0  0  0  0  0  0  0
   21.1364  -24.3329    3.8847 H   0  0  0  0  0  0  0  0  0  0  0  0
   19.4494  -24.7719    3.6656 H   0  0  0  0  0  0  0  0  0  0  0  0
   19.8606  -23.2120    4.3393 H   0  0  0  0  0  0  0  0  0  0  0  0
   18.6616  -26.5818    7.6514 H   0  0  0  0  0  0  0  0  0  0  0  0
   19.2485  -25.2735    9.8342 H   0  0  0  0  0  0  0  0  0  0  0  0
   19.7106  -23.9591    8.7861 H   0  0  0  0  0  0  0  0  0  0  0  0
  1  2  1  0
  1  6  1  0
  1 14  1  0
  1 15  1  0
  2  3  1  0
  2 16  1  0
  2 17  1  0
  3 18  1  0
  3 19  1  0
  3 20  1  0
  4  8  1  0
  4 10  2  0
  4 11  1  0
  5  6  1  0
  5 12  2  0
  5 13  1  0
  6  7  1  0
  6 21  1  6
  7  8  1  0
  7 22  1  0
  7 23  1  0
  8  9  2  0
M  CHG  2  11  -1  13  -1
M  END
$$$$
