1OF1 - prepared_ligand2
     RDKit          3D

 34 36  0  0  1  0  0  0  0  0999 V2000
   16.7652   22.5941    9.7746 O   0  0  0  0  0  0  0  0  0  0  0  0
   18.1036   18.3919    9.6477 O   0  0  0  0  0  0  0  0  0  0  0  0
   22.6205   20.7566    9.2390 O   0  0  0  0  0  0  0  0  0  0  0  0
   23.5145   25.0958   10.0208 O   0  0  0  0  0  0  0  0  0  0  0  0
   20.7850   22.1603    9.4861 N   0  0  0  0  0  0  0  0  0  0  0  0
   22.9544   22.9459    9.6314 N   0  0  0  0  0  0  0  0  0  0  0  0
   17.4830   20.5353    8.6781 C   0  0  2  0  0  0  0  0  0  0  0  0
   17.8512   19.7502    9.9539 C   0  0  2  0  0  0  0  0  0  0  0  0
   19.1513   20.4162   10.4273 C   0  0  0  0  0  0  0  0  0  0  0  0
   19.8538   21.0539    9.2103 C   0  0  1  0  0  0  0  0  0  0  0  0
   18.7830   21.1869    8.1580 C   0  0  1  0  0  0  0  0  0  0  0  0
   16.3556   21.5661    8.8960 C   0  0  0  0  0  0  0  0  0  0  0  0
   22.1333   21.8689    9.4390 C   0  0  0  0  0  0  0  0  0  0  0  0
   19.9487   20.2554    7.9123 C   0  0  0  0  0  0  0  0  0  0  0  0
   22.6396   24.2490    9.8671 C   0  0  0  0  0  0  0  0  0  0  0  0
   21.2040   24.5035    9.9032 C   0  0  0  0  0  0  0  0  0  0  0  0
   20.3750   23.4546    9.7070 C   0  0  0  0  0  0  0  0  0  0  0  0
   20.7367   25.9354   10.1251 C   0  0  0  0  0  0  0  0  0  0  0  0
   16.0436   23.2311    9.8533 H   0  0  0  0  0  0  0  0  0  0  0  0
   17.2597   17.9841    9.4200 H   0  0  0  0  0  0  0  0  0  0  0  0
   23.9436   22.7456    9.5894 H   0  0  0  0  0  0  0  0  0  0  0  0
   17.1065   19.8348    7.9358 H   0  0  0  0  0  0  0  0  0  0  0  0
   17.0657   19.8162   10.6983 H   0  0  0  0  0  0  0  0  0  0  0  0
   19.7961   19.7552   11.0037 H   0  0  0  0  0  0  0  0  0  0  0  0
   18.8837   21.2182   11.1167 H   0  0  0  0  0  0  0  0  0  0  0  0
   18.6639   22.1166    7.5993 H   0  0  0  0  0  0  0  0  0  0  0  0
   16.0619   22.0132    7.9461 H   0  0  0  0  0  0  0  0  0  0  0  0
   15.4632   21.0866    9.3005 H   0  0  0  0  0  0  0  0  0  0  0  0
   19.8391   19.1775    7.9540 H   0  0  0  0  0  0  0  0  0  0  0  0
   20.7169   20.5291    7.1907 H   0  0  0  0  0  0  0  0  0  0  0  0
   19.2987   23.5543    9.7127 H   0  0  0  0  0  0  0  0  0  0  0  0
   19.6524   26.0153   10.0515 H   0  0  0  0  0  0  0  0  0  0  0  0
   21.0365   26.2906   11.1119 H   0  0  0  0  0  0  0  0  0  0  0  0
   21.1645   26.6061    9.3775 H   0  0  0  0  0  0  0  0  0  0  0  0
  1 12  1  0
  1 19  1  0
  2  8  1  0
  2 20  1  0
  3 13  2  0
  4 15  2  0
 10  5  1  1
  5 13  1  0
  5 17  1  0
  6 13  1  0
  6 15  1  0
  6 21  1  0
  7  8  1  0
  7 11  1  0
  7 12  1  0
  7 22  1  6
  8  9  1  0
  8 23  1  1
  9 10  1  0
  9 24  1  0
  9 25  1  0
 10 11  1  0
 10 14  1  0
 11 14  1  0
 11 26  1  6
 12 27  1  0
 12 28  1  0
 14 29  1  0
 14 30  1  0
 15 16  1  0
 16 17  2  0
 16 18  1  0
 17 31  1  0
 18 32  1  0
 18 33  1  0
 18 34  1  0
M  END
$$$$
