8EAD - prepared_ligand
     RDKit          3D

 73 76  0  0  1  0  0  0  0  0999 V2000
   14.0788   -9.8899   -4.3978 C   0  0  0  0  0  0  0  0  0  0  0  0
   13.9732  -12.8408   -6.6577 C   0  0  0  0  0  0  0  0  0  0  0  0
   15.1073  -14.3288   -4.8525 C   0  0  0  0  0  0  0  0  0  0  0  0
   14.0979  -16.0781   -6.2555 C   0  0  0  0  0  0  0  0  0  0  0  0
   13.5452   -8.3943   -2.5724 C   0  0  0  0  0  0  0  0  0  0  0  0
   12.7120   -5.2186    0.2488 C   0  0  0  0  0  0  0  0  0  0  0  0
   10.3796   -6.1749   -0.1361 C   0  0  0  0  0  0  0  0  0  0  0  0
    8.3393   -7.4517   -0.0429 C   0  0  0  0  0  0  0  0  0  0  0  0
   12.8200   -3.1819    1.8097 C   0  0  0  0  0  0  0  0  0  0  0  0
   13.4432   -4.1800    0.8487 C   0  0  0  0  0  0  0  0  0  0  0  0
   14.7912   -4.0719    0.4931 C   0  0  0  0  0  0  0  0  0  0  0  0
   14.6127   -5.8879   -0.9259 C   0  0  0  0  0  0  0  0  0  0  0  0
   14.7761   -7.7412   -2.7262 C   0  0  0  0  0  0  0  0  0  0  0  0
   15.6434   -8.1670   -3.7332 C   0  0  0  0  0  0  0  0  0  0  0  0
   15.3019   -9.2257   -4.5678 C   0  0  0  0  0  0  0  0  0  0  0  0
   14.5053  -11.4743   -6.1876 C   0  0  0  0  0  0  0  0  0  0  0  0
   15.3799  -15.6799   -5.5207 C   0  0  0  0  0  0  0  0  0  0  0  0
   13.0216  -15.0927   -5.8003 C   0  0  0  0  0  0  0  0  0  0  0  0
   13.2050   -9.4588   -3.4014 C   0  0  0  0  0  0  0  0  0  0  0  0
    9.3000   -6.6695    0.5876 C   0  0  0  0  0  0  0  0  0  0  0  0
    8.4497   -7.7494   -1.4023 C   0  0  0  0  0  0  0  0  0  0  0  0
    9.5168   -7.2456   -2.1765 C   0  0  0  0  0  0  0  0  0  0  0  0
    9.0873   -5.5327   -5.3207 C   0  0  0  0  0  0  0  0  0  0  0  0
    8.6569   -4.6027   -4.1651 C   0  0  0  0  0  0  0  0  0  0  0  0
    7.8636   -6.2775   -5.8985 C   0  0  0  0  0  0  0  0  0  0  0  0
    9.7705   -4.7074   -6.4268 C   0  0  0  0  0  0  0  0  0  0  0  0
   10.4490   -6.4336   -1.5096 C   0  0  0  0  0  0  0  0  0  0  0  0
   15.3902   -4.9150   -0.3878 N   0  0  0  0  0  0  0  0  0  0  0  0
   15.2215   -6.6836   -1.9084 N   0  0  0  0  0  0  0  0  0  0  0  0
   13.7930  -13.8061   -5.4621 N   0  0  0  0  0  0  0  0  0  0  0  0
   13.3063   -6.0754   -0.6228 N   0  0  0  0  0  0  0  0  0  0  0  0
   11.3416   -5.3879    0.5226 N   0  0  0  0  0  0  0  0  0  0  0  0
    9.5684   -7.5699   -3.5167 N   0  0  0  0  0  0  0  0  0  0  0  0
   13.6620  -10.9653   -5.1558 O   0  0  0  0  0  0  0  0  0  0  0  0
   11.5285   -6.0748   -4.2615 O   0  0  0  0  0  0  0  0  0  0  0  0
   10.5749   -7.7476   -5.8053 O   0  0  0  0  0  0  0  0  0  0  0  0
   10.3478   -6.8371   -4.6765 S   0  0  0  0  0  0  0  0  0  0  0  0
    7.2178   -8.7614   -2.0929 Cl  0  0  0  0  0  0  0  0  0  0  0  0
   14.6323  -13.3385   -7.3706 H   0  0  0  0  0  0  0  0  0  0  0  0
   12.9795  -12.7358   -7.0958 H   0  0  0  0  0  0  0  0  0  0  0  0
   15.8988  -13.5877   -4.9413 H   0  0  0  0  0  0  0  0  0  0  0  0
   14.8707  -14.4334   -3.7967 H   0  0  0  0  0  0  0  0  0  0  0  0
   13.8106  -17.1068   -6.0348 H   0  0  0  0  0  0  0  0  0  0  0  0
   14.2367  -16.0053   -7.3350 H   0  0  0  0  0  0  0  0  0  0  0  0
   12.8384   -8.1240   -1.8072 H   0  0  0  0  0  0  0  0  0  0  0  0
    7.5094   -7.8388    0.5304 H   0  0  0  0  0  0  0  0  0  0  0  0
   13.4961   -2.3596    2.0414 H   0  0  0  0  0  0  0  0  0  0  0  0
   11.9120   -2.7539    1.3847 H   0  0  0  0  0  0  0  0  0  0  0  0
   12.5466   -3.6840    2.7337 H   0  0  0  0  0  0  0  0  0  0  0  0
   15.4074   -3.2831    0.8960 H   0  0  0  0  0  0  0  0  0  0  0  0
   16.6002   -7.6891   -3.8746 H   0  0  0  0  0  0  0  0  0  0  0  0
   16.0055   -9.5155   -5.3330 H   0  0  0  0  0  0  0  0  0  0  0  0
   14.5228  -10.7731   -7.0232 H   0  0  0  0  0  0  0  0  0  0  0  0
   15.5336  -11.5901   -5.8443 H   0  0  0  0  0  0  0  0  0  0  0  0
   15.6476  -16.4201   -4.7651 H   0  0  0  0  0  0  0  0  0  0  0  0
   16.2226  -15.6085   -6.2100 H   0  0  0  0  0  0  0  0  0  0  0  0
   12.5455  -15.3739   -4.8586 H   0  0  0  0  0  0  0  0  0  0  0  0
   12.2318  -14.8766   -6.5212 H   0  0  0  0  0  0  0  0  0  0  0  0
   12.2572   -9.9592   -3.2628 H   0  0  0  0  0  0  0  0  0  0  0  0
    9.2038   -6.4586    1.6409 H   0  0  0  0  0  0  0  0  0  0  0  0
    9.5126   -4.0847   -3.7356 H   0  0  0  0  0  0  0  0  0  0  0  0
    7.9510   -3.8459   -4.5066 H   0  0  0  0  0  0  0  0  0  0  0  0
    8.1710   -5.1478   -3.3569 H   0  0  0  0  0  0  0  0  0  0  0  0
    8.1462   -6.9158   -6.7362 H   0  0  0  0  0  0  0  0  0  0  0  0
    7.4013   -6.9261   -5.1547 H   0  0  0  0  0  0  0  0  0  0  0  0
    7.1008   -5.5837   -6.2542 H   0  0  0  0  0  0  0  0  0  0  0  0
   10.1220   -5.3451   -7.2386 H   0  0  0  0  0  0  0  0  0  0  0  0
    9.0903   -3.9700   -6.8548 H   0  0  0  0  0  0  0  0  0  0  0  0
   10.6380   -4.1707   -6.0438 H   0  0  0  0  0  0  0  0  0  0  0  0
   11.2695   -5.9948   -2.0400 H   0  0  0  0  0  0  0  0  0  0  0  0
   16.1668   -6.3934   -2.1131 H   0  0  0  0  0  0  0  0  0  0  0  0
   13.2689  -13.2924   -4.7619 H   0  0  0  0  0  0  0  0  0  0  0  0
   10.9988   -4.8649    1.3152 H   0  0  0  0  0  0  0  0  0  0  0  0
  1 15  1  0
  1 19  2  0
  1 34  1  0
  2 16  1  0
  2 30  1  0
  2 39  1  0
  2 40  1  0
  3 17  1  0
  3 30  1  0
  3 41  1  0
  3 42  1  0
  4 17  1  0
  4 18  1  0
  4 43  1  0
  4 44  1  0
  5 13  2  0
  5 19  1  0
  5 45  1  0
  6 10  2  0
  6 31  1  0
  6 32  1  0
  7 20  1  0
  7 27  2  0
  7 32  1  0
  8 20  2  0
  8 21  1  0
  8 46  1  0
  9 10  1  0
  9 47  1  0
  9 48  1  0
  9 49  1  0
 10 11  1  0
 11 28  2  0
 11 50  1  0
 12 28  1  0
 12 29  1  0
 12 31  2  0
 13 14  1  0
 13 29  1  0
 14 15  2  0
 14 51  1  0
 15 52  1  0
 16 34  1  0
 16 53  1  0
 16 54  1  0
 17 55  1  0
 17 56  1  0
 18 30  1  0
 18 57  1  0
 18 58  1  0
 19 59  1  0
 20 60  1  0
 21 22  2  0
 21 38  1  0
 22 27  1  0
 22 33  1  0
 23 24  1  0
 23 25  1  0
 23 26  1  0
 23 37  1  0
 24 61  1  0
 24 62  1  0
 24 63  1  0
 25 64  1  0
 25 65  1  0
 25 66  1  0
 26 67  1  0
 26 68  1  0
 26 69  1  0
 27 70  1  0
 29 71  1  0
 30 72  1  0
 32 73  1  0
 33 37  1  0
 35 37  2  0
 36 37  2  0
M  CHG  2  30   1  33  -1
M  END
$$$$
