1IG3 - prepared_ligand2
     RDKit          3D

 35 36  0  0  1  0  0  0  0  0999 V2000
   19.4612   39.6726   22.8791 C   0  0  0  0  0  0  0  0  0  0  0  0
   24.0310   39.1533   21.5331 N   0  0  0  0  0  0  0  0  0  0  0  0
   25.6324   40.3194   16.7715 C   0  0  0  0  0  0  0  0  0  0  0  0
   28.4551   44.5495   15.8285 O   0  0  0  0  0  0  0  0  0  0  0  0
   27.2953   44.1521   16.5295 C   0  0  0  0  0  0  0  0  0  0  0  0
   27.5748   42.8996   17.3776 C   0  0  0  0  0  0  0  0  0  0  0  0
   24.5050   42.1579   19.8175 C   0  0  0  0  0  0  0  0  0  0  0  0
   25.7863   43.2861   19.5706 S   0  0  0  0  0  0  0  0  0  0  0  0
   26.3523   42.4263   18.1470 C   0  0  0  0  0  0  0  0  0  0  0  0
   25.5179   41.3246   17.9024 C   0  0  0  0  0  0  0  0  0  0  0  0
   24.4871   41.1767   18.8435 N   0  0  0  0  0  0  0  0  0  0  0  0
   23.4842   40.0994   18.7738 C   0  0  0  0  0  0  0  0  0  0  0  0
   22.7429   39.5521   21.1892 C   0  0  0  0  0  0  0  0  0  0  0  0
   21.7945   39.4461   22.1566 N   0  0  0  0  0  0  0  0  0  0  0  0
   20.5297   39.7918   21.8075 C   0  0  0  0  0  0  0  0  0  0  0  0
   20.1301   40.2320   20.5882 N   0  0  0  0  0  0  0  0  0  0  0  0
   21.1029   40.3329   19.6461 C   0  0  0  0  0  0  0  0  0  0  0  0
   22.4441   40.0166   19.8962 C   0  0  0  0  0  0  0  0  0  0  0  0
   18.5297   39.2922   22.4579 H   0  0  0  0  0  0  0  0  0  0  0  0
   19.7620   38.9840   23.6704 H   0  0  0  0  0  0  0  0  0  0  0  0
   19.2631   40.6462   23.3282 H   0  0  0  0  0  0  0  0  0  0  0  0
   24.7747   39.2140   20.8521 H   0  0  0  0  0  0  0  0  0  0  0  0
   24.2203   38.7973   22.4604 H   0  0  0  0  0  0  0  0  0  0  0  0
   25.8797   39.3273   17.1436 H   0  0  0  0  0  0  0  0  0  0  0  0
   24.7053   40.2236   16.2129 H   0  0  0  0  0  0  0  0  0  0  0  0
   26.3966   40.5895   16.0431 H   0  0  0  0  0  0  0  0  0  0  0  0
   28.4318   44.1730   14.9399 H   0  0  0  0  0  0  0  0  0  0  0  0
   26.4868   43.9725   15.8218 H   0  0  0  0  0  0  0  0  0  0  0  0
   26.9787   44.9791   17.1614 H   0  0  0  0  0  0  0  0  0  0  0  0
   28.3881   43.1125   18.0722 H   0  0  0  0  0  0  0  0  0  0  0  0
   27.9522   42.1078   16.7301 H   0  0  0  0  0  0  0  0  0  0  0  0
   23.7860   42.2092   20.6190 H   0  0  0  0  0  0  0  0  0  0  0  0
   24.0169   39.1497   18.7309 H   0  0  0  0  0  0  0  0  0  0  0  0
   22.9654   40.2184   17.8232 H   0  0  0  0  0  0  0  0  0  0  0  0
   20.7860   40.6769   18.6735 H   0  0  0  0  0  0  0  0  0  0  0  0
  1 15  1  0
  1 19  1  0
  1 20  1  0
  1 21  1  0
  2 13  1  0
  2 22  1  0
  2 23  1  0
  3 10  1  0
  3 24  1  0
  3 25  1  0
  3 26  1  0
  4  5  1  0
  4 27  1  0
  5  6  1  0
  5 28  1  0
  5 29  1  0
  6  9  1  0
  6 30  1  0
  6 31  1  0
  7  8  1  0
  7 11  2  0
  7 32  1  0
  8  9  1  0
  9 10  2  0
 10 11  1  0
 11 12  1  0
 12 18  1  0
 12 33  1  0
 12 34  1  0
 13 14  2  0
 13 18  1  0
 14 15  1  0
 15 16  2  0
 16 17  1  0
 17 18  2  0
 17 35  1  0
M  CHG  1  11   1
M  END
$$$$
