7Q25 - prepared_ligand
     RDKit          3D

 64 65  0  0  1  0  0  0  0  0999 V2000
  -45.4116   63.4932  -15.9863 C   0  0  0  0  0  0  0  0  0  0  0  0
  -47.6941   64.2184  -15.1591 C   0  0  0  0  0  0  0  0  0  0  0  0
  -46.7064   63.1405  -15.5602 C   0  0  0  0  0  0  0  0  0  0  0  0
  -44.4954   62.4924  -16.3581 C   0  0  0  0  0  0  0  0  0  0  0  0
  -44.8680   61.1350  -16.2884 C   0  0  0  0  0  0  0  0  0  0  0  0
  -46.1564   60.7847  -15.8526 C   0  0  0  0  0  0  0  0  0  0  0  0
  -47.0783   61.7826  -15.4938 C   0  0  0  0  0  0  0  0  0  0  0  0
  -52.5431   62.8577  -19.0760 C   0  0  2  0  0  0  0  0  0  0  0  0
  -52.4108   61.3915  -18.6103 C   0  0  0  0  0  0  0  0  0  0  0  0
  -53.8865   63.1008  -19.8082 C   0  0  0  0  0  0  0  0  0  0  0  0
  -45.5871   61.4610  -19.5484 C   0  0  0  0  0  0  0  0  0  0  0  0
  -47.0920   61.6979  -19.6864 C   0  0  0  0  0  0  0  0  0  0  0  0
  -47.4170   63.1010  -20.2303 C   0  0  0  0  0  0  0  0  0  0  0  0
  -48.9003   63.3070  -20.6001 C   0  0  0  0  0  0  0  0  0  0  0  0
  -49.9349   63.0814  -19.4712 C   0  0  1  0  0  0  0  0  0  0  0  0
  -49.7901   64.1165  -18.3313 C   0  0  0  0  0  0  0  0  0  0  0  0
  -48.6104   64.8135  -16.2660 C   0  0  1  0  0  0  0  0  0  0  0  0
  -47.9124   66.0991  -16.8509 C   0  0  0  0  0  0  0  0  0  0  0  0
  -55.0629   63.1727  -18.8119 C   0  0  0  0  0  0  0  0  0  0  0  0
  -56.4553   63.4638  -19.3623 C   0  0  0  0  0  0  0  0  0  0  0  0
  -57.5540   63.2198  -18.5310 C   0  0  0  0  0  0  0  0  0  0  0  0
  -58.8484   63.4533  -18.9855 C   0  0  0  0  0  0  0  0  0  0  0  0
  -59.0462   63.9248  -20.2797 C   0  0  0  0  0  0  0  0  0  0  0  0
  -57.9598   64.1707  -21.1149 C   0  0  0  0  0  0  0  0  0  0  0  0
  -56.6639   63.9542  -20.6557 C   0  0  0  0  0  0  0  0  0  0  0  0
  -48.9631   63.8245  -17.3110 N   0  0  0  0  0  0  0  0  0  0  0  0
  -51.3526   63.2144  -20.0014 N   0  0  0  0  0  0  0  0  0  0  0  0
  -47.0716   65.9338  -17.7653 O   0  0  0  0  0  0  0  0  0  0  0  0
  -48.2894   67.1660  -16.3237 O   0  0  0  0  0  0  0  0  0  0  0  0
  -43.9911   60.1546  -16.6480 O   0  0  0  0  0  0  0  0  0  0  0  0
  -50.4001   65.1824  -18.3853 O   0  0  0  0  0  0  0  0  0  0  0  0
  -51.9979   60.5013  -19.3859 O   0  0  0  0  0  0  0  0  0  0  0  0
  -52.7264   61.1531  -17.4300 O   0  0  0  0  0  0  0  0  0  0  0  0
  -45.1236   64.5325  -16.0324 H   0  0  0  0  0  0  0  0  0  0  0  0
  -47.1436   65.0012  -14.6371 H   0  0  0  0  0  0  0  0  0  0  0  0
  -48.3192   63.7942  -14.3841 H   0  0  0  0  0  0  0  0  0  0  0  0
  -43.5114   62.7733  -16.7025 H   0  0  0  0  0  0  0  0  0  0  0  0
  -46.4333   59.7464  -15.7858 H   0  0  0  0  0  0  0  0  0  0  0  0
  -48.0652   61.4984  -15.1625 H   0  0  0  0  0  0  0  0  0  0  0  0
  -52.4496   63.5575  -18.2467 H   0  0  0  0  0  0  0  0  0  0  0  0
  -54.0680   62.3368  -20.5661 H   0  0  0  0  0  0  0  0  0  0  0  0
  -53.8304   64.0446  -20.3460 H   0  0  0  0  0  0  0  0  0  0  0  0
  -45.3796   60.4798  -19.1218 H   0  0  0  0  0  0  0  0  0  0  0  0
  -45.0893   61.5160  -20.5114 H   0  0  0  0  0  0  0  0  0  0  0  0
  -45.1285   62.2184  -18.9173 H   0  0  0  0  0  0  0  0  0  0  0  0
  -47.5597   61.5586  -18.7113 H   0  0  0  0  0  0  0  0  0  0  0  0
  -47.5127   60.9354  -20.3435 H   0  0  0  0  0  0  0  0  0  0  0  0
  -46.8164   63.2882  -21.1222 H   0  0  0  0  0  0  0  0  0  0  0  0
  -47.0996   63.8547  -19.5113 H   0  0  0  0  0  0  0  0  0  0  0  0
  -49.1254   62.6211  -21.4130 H   0  0  0  0  0  0  0  0  0  0  0  0
  -49.0222   64.3058  -21.0258 H   0  0  0  0  0  0  0  0  0  0  0  0
  -49.8309   62.0684  -19.0857 H   0  0  0  0  0  0  0  0  0  0  0  0
  -49.5419   65.1188  -15.7786 H   0  0  0  0  0  0  0  0  0  0  0  0
  -54.8256   63.9329  -18.0712 H   0  0  0  0  0  0  0  0  0  0  0  0
  -55.1243   62.2263  -18.2765 H   0  0  0  0  0  0  0  0  0  0  0  0
  -57.4075   62.8336  -17.5330 H   0  0  0  0  0  0  0  0  0  0  0  0
  -59.6928   63.2591  -18.3412 H   0  0  0  0  0  0  0  0  0  0  0  0
  -60.0495   64.0953  -20.6417 H   0  0  0  0  0  0  0  0  0  0  0  0
  -58.1208   64.5181  -22.1211 H   0  0  0  0  0  0  0  0  0  0  0  0
  -55.8381   64.1612  -21.3172 H   0  0  0  0  0  0  0  0  0  0  0  0
  -48.4565   62.9505  -17.2885 H   0  0  0  0  0  0  0  0  0  0  0  0
  -51.4504   64.1860  -20.2695 H   0  0  0  0  0  0  0  0  0  0  0  0
  -51.4312   62.6817  -20.8576 H   0  0  0  0  0  0  0  0  0  0  0  0
  -44.3454   59.2693  -16.5083 H   0  0  0  0  0  0  0  0  0  0  0  0
  1  3  2  0
  1  4  1  0
  1 34  1  0
  2  3  1  0
  2 17  1  0
  2 35  1  0
  2 36  1  0
  3  7  1  0
  4  5  2  0
  4 37  1  0
  5  6  1  0
  5 30  1  0
  6  7  2  0
  6 38  1  0
  7 39  1  0
  8  9  1  0
  8 10  1  0
  8 27  1  0
  8 40  1  1
  9 32  2  0
  9 33  1  0
 10 19  1  0
 10 41  1  0
 10 42  1  0
 11 12  1  0
 11 43  1  0
 11 44  1  0
 11 45  1  0
 12 13  1  0
 12 46  1  0
 12 47  1  0
 13 14  1  0
 13 48  1  0
 13 49  1  0
 14 15  1  0
 14 50  1  0
 14 51  1  0
 15 16  1  0
 15 27  1  0
 15 52  1  1
 16 26  1  0
 16 31  2  0
 17 18  1  0
 17 26  1  0
 17 53  1  1
 18 28  2  0
 18 29  1  0
 19 20  1  0
 19 54  1  0
 19 55  1  0
 20 21  2  0
 20 25  1  0
 21 22  1  0
 21 56  1  0
 22 23  2  0
 22 57  1  0
 23 24  1  0
 23 58  1  0
 24 25  2  0
 24 59  1  0
 25 60  1  0
 26 61  1  0
 27 62  1  0
 27 63  1  0
 30 64  1  0
M  CHG  3  27   1  29  -1  33  -1
M  END
$$$$
