7ZXV - prepared_ligand
     RDKit          3D

 94 95  0  0  1  0  0  0  0  0999 V2000
   12.7592   17.9220  -23.2083 O   0  0  0  0  0  0  0  0  0  0  0  0
   25.8831    8.9809   -1.2826 O   0  0  0  0  0  0  0  0  0  0  0  0
   14.7560   18.2885  -19.4975 C   0  0  0  0  0  0  0  0  0  0  0  0
   27.7474    6.0023   -3.6331 C   0  0  0  0  0  0  0  0  0  0  0  0
   15.0332   19.2696  -20.6699 C   0  0  0  0  0  0  0  0  0  0  0  0
   27.3594    5.8542   -2.1338 C   0  0  0  0  0  0  0  0  0  0  0  0
   14.3003   16.9253  -20.0863 C   0  0  0  0  0  0  0  0  0  0  0  0
   27.0620    7.2597   -4.2415 C   0  0  0  0  0  0  0  0  0  0  0  0
   13.8875   19.3663  -21.6768 C   0  0  0  0  0  0  0  0  0  0  0  0
   27.4322    7.1560   -1.3338 C   0  0  0  0  0  0  0  0  0  0  0  0
   16.0821   18.1332  -18.7125 C   0  0  0  0  0  0  0  0  0  0  0  0
   13.6169   18.8240  -18.5986 C   0  0  0  0  0  0  0  0  0  0  0  0
   29.2800    6.1824   -3.7489 C   0  0  0  0  0  0  0  0  0  0  0  0
   27.2461    4.7314   -4.3637 C   0  0  0  0  0  0  0  0  0  0  0  0
   13.7306   16.8210  -21.3252 C   0  0  0  0  0  0  0  0  0  0  0  0
   26.5468    8.2639   -3.4624 C   0  0  0  0  0  0  0  0  0  0  0  0
   13.4495   17.9927  -22.1902 C   0  0  0  0  0  0  0  0  0  0  0  0
   26.5725    8.2380   -1.9823 C   0  0  0  0  0  0  0  0  0  0  0  0
   14.3392   15.7584  -19.2117 C   0  0  0  0  0  0  0  0  0  0  0  0
   27.0302    7.3521   -5.7029 C   0  0  0  0  0  0  0  0  0  0  0  0
   13.2119   15.5041  -21.9194 C   0  0  0  0  0  0  0  0  0  0  0  0
   25.9134    9.5539   -4.0052 C   0  0  0  0  0  0  0  0  0  0  0  0
   15.4293   14.9914  -19.0050 C   0  0  0  0  0  0  0  0  0  0  0  0
   25.9196    7.5099   -6.4563 C   0  0  0  0  0  0  0  0  0  0  0  0
   15.4658   13.8643  -18.0797 C   0  0  0  0  0  0  0  0  0  0  0  0
   25.9042    7.6876   -7.9095 C   0  0  0  0  0  0  0  0  0  0  0  0
   14.1581   13.2157  -17.6308 C   0  0  0  0  0  0  0  0  0  0  0  0
   27.2236    7.7669   -8.6811 C   0  0  0  0  0  0  0  0  0  0  0  0
   16.6756   13.4335  -17.6485 C   0  0  0  0  0  0  0  0  0  0  0  0
   24.7014    7.7780   -8.5272 C   0  0  0  0  0  0  0  0  0  0  0  0
   16.9012   12.4372  -16.6129 C   0  0  0  0  0  0  0  0  0  0  0  0
   24.4860    8.0502   -9.9422 C   0  0  0  0  0  0  0  0  0  0  0  0
   18.1229   12.0298  -16.2137 C   0  0  0  0  0  0  0  0  0  0  0  0
   23.2708    8.1896  -10.5052 C   0  0  0  0  0  0  0  0  0  0  0  0
   18.3685   11.1068  -15.1056 C   0  0  0  0  0  0  0  0  0  0  0  0
   23.0492    8.6130  -11.8881 C   0  0  0  0  0  0  0  0  0  0  0  0
   19.6501   10.7425  -14.8518 C   0  0  0  0  0  0  0  0  0  0  0  0
   21.7997    9.0024  -12.2294 C   0  0  0  0  0  0  0  0  0  0  0  0
   17.1947   10.6470  -14.2378 C   0  0  0  0  0  0  0  0  0  0  0  0
   24.2114    8.6481  -12.8753 C   0  0  0  0  0  0  0  0  0  0  0  0
   20.1053    9.9404  -13.7252 C   0  0  0  0  0  0  0  0  0  0  0  0
   21.3927    9.6491  -13.4715 C   0  0  0  0  0  0  0  0  0  0  0  0
   15.9317   18.9613  -21.2097 H   0  0  0  0  0  0  0  0  0  0  0  0
   15.2483   20.2675  -20.2906 H   0  0  0  0  0  0  0  0  0  0  0  0
   27.9884    5.1102   -1.6482 H   0  0  0  0  0  0  0  0  0  0  0  0
   26.3418    5.4719   -2.0488 H   0  0  0  0  0  0  0  0  0  0  0  0
   14.1204   20.0236  -22.5136 H   0  0  0  0  0  0  0  0  0  0  0  0
   13.0254   19.7945  -21.1680 H   0  0  0  0  0  0  0  0  0  0  0  0
   28.4565    7.5268   -1.3230 H   0  0  0  0  0  0  0  0  0  0  0  0
   27.1369    7.0223   -0.2933 H   0  0  0  0  0  0  0  0  0  0  0  0
   15.9620   17.5051  -17.8304 H   0  0  0  0  0  0  0  0  0  0  0  0
   16.8787   17.7076  -19.3228 H   0  0  0  0  0  0  0  0  0  0  0  0
   16.4346   19.0962  -18.3455 H   0  0  0  0  0  0  0  0  0  0  0  0
   13.4755   18.1845  -17.7275 H   0  0  0  0  0  0  0  0  0  0  0  0
   13.8438   19.8214  -18.2228 H   0  0  0  0  0  0  0  0  0  0  0  0
   12.6622   18.8809  -19.1207 H   0  0  0  0  0  0  0  0  0  0  0  0
   29.6019    6.2410   -4.7884 H   0  0  0  0  0  0  0  0  0  0  0  0
   29.6321    7.0800   -3.2421 H   0  0  0  0  0  0  0  0  0  0  0  0
   29.8102    5.3391   -3.3050 H   0  0  0  0  0  0  0  0  0  0  0  0
   27.5516    4.7158   -5.4103 H   0  0  0  0  0  0  0  0  0  0  0  0
   27.6554    3.8274   -3.9142 H   0  0  0  0  0  0  0  0  0  0  0  0
   26.1592    4.6480   -4.3334 H   0  0  0  0  0  0  0  0  0  0  0  0
   13.4286   15.5288  -18.6789 H   0  0  0  0  0  0  0  0  0  0  0  0
   27.9878    7.2923   -6.1947 H   0  0  0  0  0  0  0  0  0  0  0  0
   12.1845   15.5934  -22.2758 H   0  0  0  0  0  0  0  0  0  0  0  0
   13.8388   15.1976  -22.7563 H   0  0  0  0  0  0  0  0  0  0  0  0
   13.2090   14.6876  -21.2006 H   0  0  0  0  0  0  0  0  0  0  0  0
   26.2913   10.4335   -3.4822 H   0  0  0  0  0  0  0  0  0  0  0  0
   26.1332    9.7248   -5.0561 H   0  0  0  0  0  0  0  0  0  0  0  0
   24.8309    9.5479   -3.8882 H   0  0  0  0  0  0  0  0  0  0  0  0
   16.3328   15.2511  -19.5375 H   0  0  0  0  0  0  0  0  0  0  0  0
   24.9725    7.5267   -5.9343 H   0  0  0  0  0  0  0  0  0  0  0  0
   14.2702   12.2029  -17.2541 H   0  0  0  0  0  0  0  0  0  0  0  0
   13.6440   13.8428  -16.9058 H   0  0  0  0  0  0  0  0  0  0  0  0
   13.4968   13.1150  -18.4919 H   0  0  0  0  0  0  0  0  0  0  0  0
   27.1483    7.6365   -9.7579 H   0  0  0  0  0  0  0  0  0  0  0  0
   27.7345    8.7000   -8.4505 H   0  0  0  0  0  0  0  0  0  0  0  0
   27.8813    6.9613   -8.3566 H   0  0  0  0  0  0  0  0  0  0  0  0
   17.5577   13.8982  -18.0665 H   0  0  0  0  0  0  0  0  0  0  0  0
   23.8132    7.6709   -7.9185 H   0  0  0  0  0  0  0  0  0  0  0  0
   16.0422   12.0248  -16.1098 H   0  0  0  0  0  0  0  0  0  0  0  0
   25.3441    8.1988  -10.5761 H   0  0  0  0  0  0  0  0  0  0  0  0
   18.9782   12.4358  -16.7382 H   0  0  0  0  0  0  0  0  0  0  0  0
   22.4063    8.0251   -9.8793 H   0  0  0  0  0  0  0  0  0  0  0  0
   20.4205   11.1057  -15.5170 H   0  0  0  0  0  0  0  0  0  0  0  0
   21.0224    8.8789  -11.4863 H   0  0  0  0  0  0  0  0  0  0  0  0
   17.4620   10.1528  -13.3116 H   0  0  0  0  0  0  0  0  0  0  0  0
   16.6016   11.5137  -13.9452 H   0  0  0  0  0  0  0  0  0  0  0  0
   16.5256   10.0056  -14.8074 H   0  0  0  0  0  0  0  0  0  0  0  0
   23.9037    8.7828  -13.9064 H   0  0  0  0  0  0  0  0  0  0  0  0
   24.9402    9.4083  -12.5954 H   0  0  0  0  0  0  0  0  0  0  0  0
   24.7377    7.6934  -12.8427 H   0  0  0  0  0  0  0  0  0  0  0  0
   19.3876    9.5803  -13.0117 H   0  0  0  0  0  0  0  0  0  0  0  0
   22.1391    9.9610  -14.1872 H   0  0  0  0  0  0  0  0  0  0  0  0
  1 17  2  0
  2 18  2  0
  3  5  1  0
  3  7  1  0
  3 11  1  0
  3 12  1  0
  4  6  1  0
  4  8  1  0
  4 13  1  0
  4 14  1  0
  5  9  1  0
  5 43  1  0
  5 44  1  0
  6 10  1  0
  6 45  1  0
  6 46  1  0
  7 15  2  0
  7 19  1  0
  8 16  2  0
  8 20  1  0
  9 17  1  0
  9 47  1  0
  9 48  1  0
 10 18  1  0
 10 49  1  0
 10 50  1  0
 11 51  1  0
 11 52  1  0
 11 53  1  0
 12 54  1  0
 12 55  1  0
 12 56  1  0
 13 57  1  0
 13 58  1  0
 13 59  1  0
 14 60  1  0
 14 61  1  0
 14 62  1  0
 15 17  1  0
 15 21  1  0
 16 18  1  0
 16 22  1  0
 19 23  2  0
 19 63  1  0
 20 24  2  0
 20 64  1  0
 21 65  1  0
 21 66  1  0
 21 67  1  0
 22 68  1  0
 22 69  1  0
 22 70  1  0
 23 25  1  0
 23 71  1  0
 24 26  1  0
 24 72  1  0
 25 27  1  0
 25 29  2  0
 26 28  1  0
 26 30  2  0
 27 73  1  0
 27 74  1  0
 27 75  1  0
 28 76  1  0
 28 77  1  0
 28 78  1  0
 29 31  1  0
 29 79  1  0
 30 32  1  0
 30 80  1  0
 31 33  2  0
 31 81  1  0
 32 34  2  0
 32 82  1  0
 33 35  1  0
 33 83  1  0
 34 36  1  0
 34 84  1  0
 35 37  2  0
 35 39  1  0
 36 38  2  0
 36 40  1  0
 37 41  1  0
 37 85  1  0
 38 42  1  0
 38 86  1  0
 39 87  1  0
 39 88  1  0
 39 89  1  0
 40 90  1  0
 40 91  1  0
 40 92  1  0
 41 42  2  0
 41 93  1  0
 42 94  1  0
M  END
$$$$
