1UML - prepared_ligand
     RDKit          3D

 60 63  0  0  1  0  0  0  0  0999 V2000
   52.0077   54.7480   20.8170 C   0  0  0  0  0  0  0  0  0  0  0  0
   51.9663   55.7383   21.7683 N   0  0  0  0  0  0  0  0  0  0  0  0
   51.8020   55.0517   22.9434 C   0  0  0  0  0  0  0  0  0  0  0  0
   51.6946   53.7555   22.7764 N   0  0  0  0  0  0  0  0  0  0  0  0
   51.7835   53.5390   21.4694 C   0  0  0  0  0  0  0  0  0  0  0  0
   51.6238   52.2696   20.8002 C   0  0  0  0  0  0  0  0  0  0  0  0
   51.5519   52.1836   19.5757 O   0  0  0  0  0  0  0  0  0  0  0  0
   51.5404   51.1934   21.5861 N   0  0  0  0  0  0  0  0  0  0  0  0
   52.0269   57.1928   21.5726 C   0  0  1  0  0  0  0  0  0  0  0  0
   53.4756   57.6929   21.3578 C   0  0  0  0  0  0  0  0  0  0  0  0
   54.3050   57.4414   22.4692 O   0  0  0  0  0  0  0  0  0  0  0  0
   51.1262   57.6060   20.3881 C   0  0  0  0  0  0  0  0  0  0  0  0
   49.6223   57.3098   20.5716 C   0  0  0  0  0  0  0  0  0  0  0  0
   48.9643   57.3651   19.2741 N   0  0  0  0  0  0  0  0  0  0  0  0
   48.5036   58.5171   18.6791 C   0  0  0  0  0  0  0  0  0  0  0  0
   48.0455   58.2407   17.4111 C   0  0  0  0  0  0  0  0  0  0  0  0
   48.2212   56.8375   17.2034 C   0  0  0  0  0  0  0  0  0  0  0  0
   48.8146   56.3058   18.3891 C   0  0  0  0  0  0  0  0  0  0  0  0
   47.9223   55.9648   16.1496 C   0  0  0  0  0  0  0  0  0  0  0  0
   48.1954   54.6082   16.2985 C   0  0  0  0  0  0  0  0  0  0  0  0
   48.8178   54.0979   17.4464 C   0  0  0  0  0  0  0  0  0  0  0  0
   49.1329   54.9448   18.5135 C   0  0  0  0  0  0  0  0  0  0  0  0
   49.2209   52.7544   17.5989 N   0  0  0  0  0  0  0  0  0  0  0  0
   49.1719   51.7225   16.7261 C   0  0  0  0  0  0  0  0  0  0  0  0
   48.6855   51.7667   15.5964 O   0  0  0  0  0  0  0  0  0  0  0  0
   49.8427   50.4240   17.2006 C   0  0  0  0  0  0  0  0  0  0  0  0
   49.2224   49.1174   16.6414 C   0  0  0  0  0  0  0  0  0  0  0  0
   47.4838   48.8334   18.4685 C   0  0  0  0  0  0  0  0  0  0  0  0
   47.8029   48.8007   17.1070 C   0  0  0  0  0  0  0  0  0  0  0  0
   46.8331   48.4167   16.1754 C   0  0  0  0  0  0  0  0  0  0  0  0
   45.5563   48.0609   16.6039 C   0  0  0  0  0  0  0  0  0  0  0  0
   45.2500   48.0902   17.9622 C   0  0  0  0  0  0  0  0  0  0  0  0
   46.2079   48.4759   18.8954 C   0  0  0  0  0  0  0  0  0  0  0  0
   52.1245   54.9836   19.7692 H   0  0  0  0  0  0  0  0  0  0  0  0
   51.7398   55.5875   23.8796 H   0  0  0  0  0  0  0  0  0  0  0  0
   51.3838   50.2851   21.1772 H   0  0  0  0  0  0  0  0  0  0  0  0
   51.6152   51.2728   22.5912 H   0  0  0  0  0  0  0  0  0  0  0  0
   51.6183   57.6614   22.4682 H   0  0  0  0  0  0  0  0  0  0  0  0
   53.4745   58.7720   21.1965 H   0  0  0  0  0  0  0  0  0  0  0  0
   53.9220   57.2409   20.4708 H   0  0  0  0  0  0  0  0  0  0  0  0
   53.8749   57.7934   23.2598 H   0  0  0  0  0  0  0  0  0  0  0  0
   51.4984   57.1219   19.4845 H   0  0  0  0  0  0  0  0  0  0  0  0
   51.2448   58.6712   20.1983 H   0  0  0  0  0  0  0  0  0  0  0  0
   49.1563   58.0258   21.2508 H   0  0  0  0  0  0  0  0  0  0  0  0
   49.4432   56.3238   21.0020 H   0  0  0  0  0  0  0  0  0  0  0  0
   48.5520   59.4552   19.2124 H   0  0  0  0  0  0  0  0  0  0  0  0
   47.6273   58.9635   16.7259 H   0  0  0  0  0  0  0  0  0  0  0  0
   47.4607   56.3306   15.2437 H   0  0  0  0  0  0  0  0  0  0  0  0
   47.9230   53.9643   15.4828 H   0  0  0  0  0  0  0  0  0  0  0  0
   49.5990   54.5594   19.4086 H   0  0  0  0  0  0  0  0  0  0  0  0
   49.6726   52.5593   18.4815 H   0  0  0  0  0  0  0  0  0  0  0  0
   49.8595   50.3920   18.2906 H   0  0  0  0  0  0  0  0  0  0  0  0
   50.8871   50.4756   16.8926 H   0  0  0  0  0  0  0  0  0  0  0  0
   49.8392   48.2743   16.9510 H   0  0  0  0  0  0  0  0  0  0  0  0
   49.2759   49.1226   15.5515 H   0  0  0  0  0  0  0  0  0  0  0  0
   48.2224   49.1143   19.2041 H   0  0  0  0  0  0  0  0  0  0  0  0
   47.0686   48.3810   15.1214 H   0  0  0  0  0  0  0  0  0  0  0  0
   44.8070   47.7581   15.8872 H   0  0  0  0  0  0  0  0  0  0  0  0
   44.2618   47.8091   18.2952 H   0  0  0  0  0  0  0  0  0  0  0  0
   45.9647   48.4873   19.9471 H   0  0  0  0  0  0  0  0  0  0  0  0
  1  2  1  0
  1  5  2  0
  1 34  1  0
  2  3  1  0
  2  9  1  0
  3  4  2  0
  3 35  1  0
  4  5  1  0
  5  6  1  0
  6  7  2  0
  6  8  1  0
  8 36  1  0
  8 37  1  0
  9 10  1  0
  9 12  1  0
  9 38  1  1
 10 11  1  0
 10 39  1  0
 10 40  1  0
 11 41  1  0
 12 13  1  0
 12 42  1  0
 12 43  1  0
 13 14  1  0
 13 44  1  0
 13 45  1  0
 14 15  1  0
 14 18  1  0
 15 16  2  0
 15 46  1  0
 16 17  1  0
 16 47  1  0
 17 18  2  0
 17 19  1  0
 18 22  1  0
 19 20  2  0
 19 48  1  0
 20 21  1  0
 20 49  1  0
 21 22  2  0
 21 23  1  0
 22 50  1  0
 23 24  1  0
 23 51  1  0
 24 25  2  0
 24 26  1  0
 26 27  1  0
 26 52  1  0
 26 53  1  0
 27 29  1  0
 27 54  1  0
 27 55  1  0
 28 29  2  0
 28 33  1  0
 28 56  1  0
 29 30  1  0
 30 31  2  0
 30 57  1  0
 31 32  1  0
 31 58  1  0
 32 33  2  0
 32 59  1  0
 33 60  1  0
M  END
$$$$
