7LOE - prepared_ligand
     RDKit          3D

 18 19  0  0  1  0  0  0  0  0999 V2000
   39.7565  -20.2988   13.8448 C   0  0  0  0  0  0  0  0  0  0  0  0
   42.0046  -20.1865   12.8019 C   0  0  0  0  0  0  0  0  0  0  0  0
   42.8146  -19.7616   11.7518 C   0  0  0  0  0  0  0  0  0  0  0  0
   42.2694  -19.0953   10.6593 C   0  0  0  0  0  0  0  0  0  0  0  0
   40.9040  -18.8342   10.5973 C   0  0  0  0  0  0  0  0  0  0  0  0
   40.0529  -19.2313   11.6573 C   0  0  0  0  0  0  0  0  0  0  0  0
   38.6657  -18.9476   11.6440 C   0  0  0  0  0  0  0  0  0  0  0  0
   37.8600  -19.3213   12.7159 C   0  0  0  0  0  0  0  0  0  0  0  0
   38.4029  -19.9850   13.8094 C   0  0  0  0  0  0  0  0  0  0  0  0
   40.6106  -19.9220   12.7778 C   0  0  0  0  0  0  0  0  0  0  0  0
   42.5573  -20.8417   13.8490 F   0  0  0  0  0  0  0  0  0  0  0  0
   40.1626  -20.8191   14.6982 H   0  0  0  0  0  0  0  0  0  0  0  0
   43.8749  -19.9569   11.7846 H   0  0  0  0  0  0  0  0  0  0  0  0
   42.9102  -18.7789    9.8510 H   0  0  0  0  0  0  0  0  0  0  0  0
   40.4890  -18.3123    9.7471 H   0  0  0  0  0  0  0  0  0  0  0  0
   38.2409  -18.4226   10.8021 H   0  0  0  0  0  0  0  0  0  0  0  0
   36.8055  -19.0917   12.7036 H   0  0  0  0  0  0  0  0  0  0  0  0
   37.7707  -20.2595   14.6407 H   0  0  0  0  0  0  0  0  0  0  0  0
  1  9  2  0
  1 10  1  0
  1 12  1  0
  2  3  1  0
  2 10  2  0
  2 11  1  0
  3  4  2  0
  3 13  1  0
  4  5  1  0
  4 14  1  0
  5  6  2  0
  5 15  1  0
  6  7  1  0
  6 10  1  0
  7  8  2  0
  7 16  1  0
  8  9  1  0
  8 17  1  0
  9 18  1  0
M  END
$$$$
