7WQQ - prepared_ligand2
     RDKit          3D

 54 55  0  0  1  0  0  0  0  0999 V2000
   29.7486   -5.1781    9.6375 C   0  0  0  0  0  0  0  0  0  0  0  0
   30.7441   -5.3574   12.5277 C   0  0  0  0  0  0  0  0  0  0  0  0
   31.8903   -4.1949   14.3349 C   0  0  0  0  0  0  0  0  0  0  0  0
   31.5350   -3.1118   12.1918 C   0  0  0  0  0  0  0  0  0  0  0  0
   28.5210   -6.2146    6.1872 C   0  0  0  0  0  0  0  0  0  0  0  0
   27.6956   -7.1338    5.5293 C   0  0  0  0  0  0  0  0  0  0  0  0
   28.3363   -6.0920    3.2563 C   0  0  0  0  0  0  0  0  0  0  0  0
   26.4144   -7.6540    3.3665 C   0  0  0  0  0  0  0  0  0  0  0  0
   26.3155   -9.5434    9.3694 C   0  0  0  0  0  0  0  0  0  0  0  0
   25.6101   -8.4615    8.5206 C   0  0  0  0  0  0  0  0  0  0  0  0
   24.8389   -7.4789    9.4388 C   0  0  0  0  0  0  0  0  0  0  0  0
   24.5413   -9.1769    7.6516 C   0  0  0  0  0  0  0  0  0  0  0  0
   26.6663   -7.6876    7.6871 C   0  0  0  0  0  0  0  0  0  0  0  0
   27.5292   -6.7704    8.3085 C   0  0  0  0  0  0  0  0  0  0  0  0
   28.4759   -6.0391    7.5753 C   0  0  0  0  0  0  0  0  0  0  0  0
   29.4277   -5.0647    8.2084 C   0  0  0  0  0  0  0  0  0  0  0  0
   30.5274   -4.2718   10.2671 C   0  0  0  0  0  0  0  0  0  0  0  0
   30.9305   -4.2614   11.6845 C   0  0  0  0  0  0  0  0  0  0  0  0
   31.2062   -5.3185   13.8382 C   0  0  0  0  0  0  0  0  0  0  0  0
   32.4746   -4.1828   15.7278 C   0  0  0  0  0  0  0  0  0  0  0  0
   32.0272   -3.0832   13.4883 C   0  0  0  0  0  0  0  0  0  0  0  0
   27.7928   -7.3457    3.9973 C   0  0  0  0  0  0  0  0  0  0  0  0
   28.7283   -8.5398    3.7286 C   0  0  0  0  0  0  0  0  0  0  0  0
   26.7781   -7.8599    6.2997 C   0  0  0  0  0  0  0  0  0  0  0  0
   29.9999   -4.2147    7.5197 O   0  0  0  0  0  0  0  0  0  0  0  0
   32.8777   -3.0973   16.2022 O   0  0  0  0  0  0  0  0  0  0  0  0
   32.5565   -5.2594   16.3644 O   0  0  0  0  0  0  0  0  0  0  0  0
   29.3391   -6.0165   10.1752 H   0  0  0  0  0  0  0  0  0  0  0  0
   30.2777   -6.2599   12.1702 H   0  0  0  0  0  0  0  0  0  0  0  0
   31.6679   -2.2359   11.5771 H   0  0  0  0  0  0  0  0  0  0  0  0
   29.2433   -5.6500    5.6186 H   0  0  0  0  0  0  0  0  0  0  0  0
   28.2855   -6.2063    2.1742 H   0  0  0  0  0  0  0  0  0  0  0  0
   27.7649   -5.1977    3.5095 H   0  0  0  0  0  0  0  0  0  0  0  0
   29.3836   -5.8950    3.4819 H   0  0  0  0  0  0  0  0  0  0  0  0
   26.4850   -7.7208    2.2818 H   0  0  0  0  0  0  0  0  0  0  0  0
   26.0002   -8.6087    3.6889 H   0  0  0  0  0  0  0  0  0  0  0  0
   25.6915   -6.8725    3.6032 H   0  0  0  0  0  0  0  0  0  0  0  0
   26.8036  -10.2859    8.7376 H   0  0  0  0  0  0  0  0  0  0  0  0
   27.0857   -9.1217   10.0099 H   0  0  0  0  0  0  0  0  0  0  0  0
   25.6144  -10.0786   10.0109 H   0  0  0  0  0  0  0  0  0  0  0  0
   24.4250   -6.6463    8.8689 H   0  0  0  0  0  0  0  0  0  0  0  0
   24.0075   -7.9663    9.9473 H   0  0  0  0  0  0  0  0  0  0  0  0
   25.4683   -7.0488   10.2134 H   0  0  0  0  0  0  0  0  0  0  0  0
   24.0281   -8.4700    7.0009 H   0  0  0  0  0  0  0  0  0  0  0  0
   24.9713   -9.9617    7.0277 H   0  0  0  0  0  0  0  0  0  0  0  0
   23.7789   -9.6599    8.2636 H   0  0  0  0  0  0  0  0  0  0  0  0
   27.4567   -6.6342    9.3765 H   0  0  0  0  0  0  0  0  0  0  0  0
   30.9313   -3.4545    9.6876 H   0  0  0  0  0  0  0  0  0  0  0  0
   31.0606   -6.1953   14.4489 H   0  0  0  0  0  0  0  0  0  0  0  0
   32.5296   -2.1855   13.8142 H   0  0  0  0  0  0  0  0  0  0  0  0
   28.8464   -8.7218    2.6595 H   0  0  0  0  0  0  0  0  0  0  0  0
   29.7185   -8.3677    4.1513 H   0  0  0  0  0  0  0  0  0  0  0  0
   28.3453   -9.4599    4.1727 H   0  0  0  0  0  0  0  0  0  0  0  0
   26.1484   -8.5786    5.8061 H   0  0  0  0  0  0  0  0  0  0  0  0
  1 16  1  0
  1 17  2  0
  1 28  1  0
  2 18  2  0
  2 19  1  0
  2 29  1  0
  3 19  2  0
  3 20  1  0
  3 21  1  0
  4 18  1  0
  4 21  2  0
  4 30  1  0
  5  6  2  0
  5 15  1  0
  5 31  1  0
  6 22  1  0
  6 24  1  0
  7 22  1  0
  7 32  1  0
  7 33  1  0
  7 34  1  0
  8 22  1  0
  8 35  1  0
  8 36  1  0
  8 37  1  0
  9 10  1  0
  9 38  1  0
  9 39  1  0
  9 40  1  0
 10 11  1  0
 10 12  1  0
 10 13  1  0
 11 41  1  0
 11 42  1  0
 11 43  1  0
 12 44  1  0
 12 45  1  0
 12 46  1  0
 13 14  1  0
 13 24  2  0
 14 15  2  0
 14 47  1  0
 15 16  1  0
 16 25  2  0
 17 18  1  0
 17 48  1  0
 19 49  1  0
 20 26  2  0
 20 27  1  0
 21 50  1  0
 22 23  1  0
 23 51  1  0
 23 52  1  0
 23 53  1  0
 24 54  1  0
M  CHG  1  27  -1
M  END
$$$$
