4OWM_ligand
     RDKit          3D

 11 11  0  0  1  0  0  0  0  0999 V2000
    1.7790  -37.7175   43.5646 O   0  0  0  0  0  0  0  0  0  0  0  0
    0.5733  -37.3806   43.5583 C   0  0  0  0  0  0  0  0  0  0  0  0
   -0.2524  -37.7521   42.6913 O   0  0  0  0  0  0  0  0  0  0  0  0
    0.0791  -36.4689   44.6470 C   0  0  0  0  0  0  0  0  0  0  0  0
   -1.0940  -36.8228   45.3329 C   0  0  0  0  0  0  0  0  0  0  0  0
   -1.6076  -36.0191   46.3415 C   0  0  0  0  0  0  0  0  0  0  0  0
   -0.9464  -34.8509   46.7045 C   0  0  0  0  0  0  0  0  0  0  0  0
    0.2165  -34.4697   46.0411 C   0  0  0  0  0  0  0  0  0  0  0  0
    0.8312  -33.3181   46.4068 F   0  0  0  0  0  0  0  0  0  0  0  0
    0.7304  -35.2592   45.0026 C   0  0  0  0  0  0  0  0  0  0  0  0
    1.8811  -34.8007   44.3470 N   0  0  0  0  0  0  0  0  0  0  0  0
  1  2  2  0
  2  3  1  0
  2  4  1  0
  4  5  2  0
  4 10  1  0
  5  6  1  0
  6  7  2  0
  7  8  1  0
  8  9  1  0
  8 10  2  0
 10 11  1  0
M  CHG  1   3  -1
M  END
$$$$
