2YFE_ligand
     RDKit          3D

 25 26  0  0  1  0  0  0  0  0999 V2000
   -4.5360   -4.6648   15.3148 C   0  0  0  0  0  0  0  0  0  0  0  0
   -3.7562   -5.9575   15.1826 C   0  0  0  0  0  0  0  0  0  0  0  0
   -4.1371   -6.7906   13.9701 C   0  0  0  0  0  0  0  0  0  0  0  0
   -2.8120   -6.3012   16.0841 C   0  0  0  0  0  0  0  0  0  0  0  0
   -1.8314   -7.4646   15.9985 C   0  0  0  0  0  0  0  0  0  0  0  0
   -1.8489   -8.5556   17.0937 C   0  0  0  0  0  0  0  0  0  0  0  0
   -1.7774   -8.2055   18.4520 C   0  0  0  0  0  0  0  0  0  0  0  0
   -1.6247   -9.2191   19.4020 C   0  0  0  0  0  0  0  0  0  0  0  0
   -1.8074   -6.8654   18.7969 O   0  0  0  0  0  0  0  0  0  0  0  0
   -1.6845   -6.4784   20.1642 C   0  0  0  0  0  0  0  0  0  0  0  0
   -1.7801   -9.9161   16.7259 C   0  0  0  0  0  0  0  0  0  0  0  0
   -1.8327  -10.2157   15.3844 O   0  0  0  0  0  0  0  0  0  0  0  0
   -1.6098  -10.9530   17.6845 C   0  0  0  0  0  0  0  0  0  0  0  0
   -1.5236  -12.4090   17.2373 C   0  0  0  0  0  0  0  0  0  0  0  0
   -2.2681  -12.8034   16.3107 O   0  0  0  0  0  0  0  0  0  0  0  0
   -0.7276  -13.1880   17.8103 O   0  0  0  0  0  0  0  0  0  0  0  0
   -1.5120  -10.5637   19.0501 C   0  0  0  0  0  0  0  0  0  0  0  0
   -1.2280  -11.5166   20.2199 C   0  0  0  0  0  0  0  0  0  0  0  0
    0.2874  -11.6217   20.4966 C   0  0  0  0  0  0  0  0  0  0  0  0
    0.6431  -12.6989   21.5068 C   0  0  0  0  0  0  0  0  0  0  0  0
    0.6175  -12.4003   22.8658 C   0  0  0  0  0  0  0  0  0  0  0  0
    0.9778  -13.3652   23.8029 C   0  0  0  0  0  0  0  0  0  0  0  0
    1.3335  -14.6398   23.3707 C   0  0  0  0  0  0  0  0  0  0  0  0
    1.3440  -14.9531   22.0133 C   0  0  0  0  0  0  0  0  0  0  0  0
    1.0061  -13.9765   21.0794 C   0  0  0  0  0  0  0  0  0  0  0  0
  1  2  1  0
  2  3  1  0
  2  4  2  0
  4  5  1  0
  5  6  1  0
  6  7  2  0
  6 11  1  0
  7  8  1  0
  7  9  1  0
  8 17  2  0
  9 10  1  0
 11 12  1  0
 11 13  2  0
 13 14  1  0
 13 17  1  0
 14 15  1  0
 14 16  2  0
 17 18  1  0
 18 19  1  0
 19 20  1  0
 20 21  2  0
 20 25  1  0
 21 22  1  0
 22 23  2  0
 23 24  1  0
 24 25  2  0
M  CHG  1  15  -1
M  END
$$$$
