7VKZ - prepared_ligand1
     RDKit          3D

 25 25  0  0  1  0  0  0  0  0999 V2000
   14.1865    3.1303   34.4837 C   0  0  0  0  0  0  0  0  0  0  0  0
   13.3967    2.2109   35.4295 C   0  0  2  0  0  0  0  0  0  0  0  0
   12.2275    1.7884   34.7640 O   0  0  0  0  0  0  0  0  0  0  0  0
   13.1065    2.9282   36.7661 C   0  0  1  0  0  0  0  0  0  0  0  0
   12.3375    2.1080   37.6271 O   0  0  0  0  0  0  0  0  0  0  0  0
   14.4425    3.3575   37.4334 C   0  0  2  0  0  0  0  0  0  0  0  0
   14.2140    4.0607   38.6368 O   0  0  0  0  0  0  0  0  0  0  0  0
   15.3498    4.2097   36.5007 C   0  0  2  0  0  0  0  0  0  0  0  0
   15.5253    3.5140   35.1307 N   0  0  0  0  0  0  0  0  0  0  0  0
   16.7641    4.5060   37.0479 C   0  0  0  0  0  0  0  0  0  0  0  0
   17.4950    3.3246   37.3142 O   0  0  0  0  0  0  0  0  0  0  0  0
   13.6789    4.0754   34.3186 H   0  0  0  0  0  0  0  0  0  0  0  0
   14.4277    2.6823   33.5222 H   0  0  0  0  0  0  0  0  0  0  0  0
   13.9623    1.3067   35.6472 H   0  0  0  0  0  0  0  0  0  0  0  0
   12.4996    1.2427   34.0197 H   0  0  0  0  0  0  0  0  0  0  0  0
   12.5012    3.8163   36.5753 H   0  0  0  0  0  0  0  0  0  0  0  0
   11.4648    1.9865   37.2372 H   0  0  0  0  0  0  0  0  0  0  0  0
   14.9832    2.4535   37.7165 H   0  0  0  0  0  0  0  0  0  0  0  0
   15.0223    4.0748   39.1662 H   0  0  0  0  0  0  0  0  0  0  0  0
   14.8651    5.1562   36.2542 H   0  0  0  0  0  0  0  0  0  0  0  0
   16.0286    4.1316   34.5085 H   0  0  0  0  0  0  0  0  0  0  0  0
   16.0959    2.6861   35.2522 H   0  0  0  0  0  0  0  0  0  0  0  0
   16.7042    5.0841   37.9698 H   0  0  0  0  0  0  0  0  0  0  0  0
   17.3269    5.1231   36.3466 H   0  0  0  0  0  0  0  0  0  0  0  0
   17.2981    3.0370   38.2157 H   0  0  0  0  0  0  0  0  0  0  0  0
  1  2  1  0
  1  9  1  0
  1 12  1  0
  1 13  1  0
  2  3  1  0
  2  4  1  0
  2 14  1  1
  3 15  1  0
  4  5  1  0
  4  6  1  0
  4 16  1  6
  5 17  1  0
  6  7  1  0
  6  8  1  0
  6 18  1  1
  7 19  1  0
  8  9  1  0
  8 10  1  0
  8 20  1  6
  9 21  1  0
  9 22  1  0
 10 11  1  0
 10 23  1  0
 10 24  1  0
 11 25  1  0
M  CHG  1   9   1
M  END
$$$$
