3ARP_ligand
     RDKit          3D

 34 37  0  0  1  0  0  0  0  0999 V2000
    9.2110   -8.1625   30.1250 C   0  0  0  0  0  0  0  0  0  0  0  0
    8.4768   -9.1510   30.7671 C   0  0  0  0  0  0  0  0  0  0  0  0
    7.7377   -8.8608   31.9011 C   0  0  0  0  0  0  0  0  0  0  0  0
    7.6899   -7.5658   32.3990 C   0  0  0  0  0  0  0  0  0  0  0  0
    9.2073   -6.8225   30.6164 C   0  0  0  0  0  0  0  0  0  0  0  0
    8.4101   -6.5107   31.7683 C   0  0  0  0  0  0  0  0  0  0  0  0
    8.3651   -5.1718   32.2453 C   0  0  0  0  0  0  0  0  0  0  0  0
    9.0771   -4.1908   31.5716 C   0  0  0  0  0  0  0  0  0  0  0  0
    9.8674   -4.5000   30.4685 C   0  0  0  0  0  0  0  0  0  0  0  0
    9.9575   -5.7948   30.0335 N   0  0  0  0  0  0  0  0  0  0  0  0
   20.1879  -10.0628   21.8159 C   0  0  0  0  0  0  0  0  0  0  0  0
   18.9081   -9.6577   22.3231 C   0  0  0  0  0  0  0  0  0  0  0  0
   17.7713   -9.9623   21.5639 N   0  0  0  0  0  0  0  0  0  0  0  0
   17.8590  -10.5592   20.3375 C   0  0  0  0  0  0  0  0  0  0  0  0
   19.1001  -10.9287   19.8330 C   0  0  0  0  0  0  0  0  0  0  0  0
   20.2649  -10.7103   20.5511 C   0  0  0  0  0  0  0  0  0  0  0  0
   21.3425   -9.7991   22.6073 C   0  0  0  0  0  0  0  0  0  0  0  0
   21.2396   -9.1481   23.8309 C   0  0  0  0  0  0  0  0  0  0  0  0
   20.0042   -8.7389   24.3100 C   0  0  0  0  0  0  0  0  0  0  0  0
   18.8471   -8.9801   23.5803 C   0  0  0  0  0  0  0  0  0  0  0  0
   16.4200   -9.6786   22.1440 C   0  0  0  0  0  0  0  0  0  0  0  0
   15.9695   -8.2140   21.9929 C   0  0  0  0  0  0  0  0  0  0  0  0
   14.8842   -7.8238   23.0223 C   0  0  0  0  0  0  0  0  0  0  0  0
   13.5468   -8.5741   22.8640 C   0  0  0  0  0  0  0  0  0  0  0  0
   12.5255   -8.2900   23.9851 C   0  0  0  0  0  0  0  0  0  0  0  0
   11.9279   -6.8677   23.9724 C   0  0  0  0  0  0  0  0  0  0  0  0
   10.8337   -6.6348   25.0374 C   0  0  0  0  0  0  0  0  0  0  0  0
   11.3661   -6.6057   26.4835 C   0  0  0  0  0  0  0  0  0  0  0  0
   10.3029   -6.2460   27.5421 C   0  0  0  0  0  0  0  0  0  0  0  0
   10.9336   -6.1360   28.9462 C   0  0  0  0  0  0  0  0  0  0  0  0
   10.6176   -3.3594   29.7850 C   0  0  0  0  0  0  0  0  0  0  0  0
   16.6253  -10.8772   19.5010 C   0  0  0  0  0  0  0  0  0  0  0  0
    7.6242   -4.7918   33.3672 N   0  0  0  0  0  0  0  0  0  0  0  0
   21.4670  -11.1382   19.9817 N   0  0  0  0  0  0  0  0  0  0  0  0
  1  2  2  0
  1  5  1  0
  2  3  1  0
  3  4  2  0
  4  6  1  0
  5  6  2  0
  5 10  1  0
  6  7  1  0
  7  8  2  0
  7 33  1  0
  8  9  1  0
  9 10  2  0
  9 31  1  0
 10 30  1  0
 11 12  2  0
 11 16  1  0
 11 17  1  0
 12 13  1  0
 12 20  1  0
 13 14  2  0
 13 21  1  0
 14 15  1  0
 14 32  1  0
 15 16  2  0
 16 34  1  0
 17 18  2  0
 18 19  1  0
 19 20  2  0
 21 22  1  0
 22 23  1  0
 23 24  1  0
 24 25  1  0
 25 26  1  0
 26 27  1  0
 27 28  1  0
 28 29  1  0
 29 30  1  0
M  CHG  2  10   1  13   1
M  END
$$$$
