7Q5I - prepared_ligand
     RDKit          3D

 50 51  0  0  1  0  0  0  0  0999 V2000
   34.2465   23.4014   28.8747 N   0  0  0  0  0  0  0  0  0  0  0  0
   32.3954   20.8975   25.9802 C   0  0  1  0  0  0  0  0  0  0  0  0
   32.1729   20.7344   27.5028 C   0  0  1  0  0  0  0  0  0  0  0  0
   32.0190   19.2761   27.9800 C   0  0  0  0  0  0  0  0  0  0  0  0
   34.0044   23.9501   30.0840 C   0  0  0  0  0  0  0  0  0  0  0  0
   35.1765   24.4178   30.8186 C   0  0  0  0  0  0  0  0  0  0  0  0
   36.0012   25.5025   33.0120 C   0  0  0  0  0  0  0  0  0  0  0  0
   37.6946   26.7670   34.8973 C   0  0  0  0  0  0  0  0  0  0  0  0
   37.2540   25.9900   32.6286 C   0  0  0  0  0  0  0  0  0  0  0  0
   39.6883   28.1954   35.3453 C   0  0  0  0  0  0  0  0  0  0  0  0
   37.9249   27.9604   37.0744 C   0  0  0  0  0  0  0  0  0  0  0  0
   38.5152   27.4637   35.8286 N   0  0  0  0  0  0  0  0  0  0  0  0
   38.0884   26.6052   33.5580 C   0  0  0  0  0  0  0  0  0  0  0  0
   36.4560   26.2290   35.2806 C   0  0  0  0  0  0  0  0  0  0  0  0
   35.6249   25.6088   34.3525 C   0  0  0  0  0  0  0  0  0  0  0  0
   35.0142   24.9210   32.0709 C   0  0  0  0  0  0  0  0  0  0  0  0
   36.4506   24.3028   30.1749 C   0  0  0  0  0  0  0  0  0  0  0  0
   37.4549   24.1762   29.6155 N   0  0  0  0  0  0  0  0  0  0  0  0
   32.8591   24.0398   30.5351 O   0  0  0  0  0  0  0  0  0  0  0  0
   33.2790   22.7527   28.0247 C   0  0  2  0  0  0  0  0  0  0  0  0
   33.2310   21.3648   28.2277 O   0  0  0  0  0  0  0  0  0  0  0  0
   33.0504   18.4506   27.4865 O   0  0  0  0  0  0  0  0  0  0  0  0
   31.3092   20.3348   25.2722 O   0  0  0  0  0  0  0  0  0  0  0  0
   32.5928   22.3799   25.6080 C   0  0  2  0  0  0  0  0  0  0  0  0
   32.9720   22.5003   24.2479 O   0  0  0  0  0  0  0  0  0  0  0  0
   33.6053   23.0699   26.5529 C   0  0  1  0  0  0  0  0  0  0  0  0
   33.6784   24.4656   26.3137 O   0  0  0  0  0  0  0  0  0  0  0  0
   35.2024   23.3845   28.5489 H   0  0  0  0  0  0  0  0  0  0  0  0
   33.2895   20.3459   25.6848 H   0  0  0  0  0  0  0  0  0  0  0  0
   31.2406   21.2293   27.7656 H   0  0  0  0  0  0  0  0  0  0  0  0
   31.0630   18.8717   27.6476 H   0  0  0  0  0  0  0  0  0  0  0  0
   32.0104   19.2221   29.0667 H   0  0  0  0  0  0  0  0  0  0  0  0
   37.5895   25.9556   31.6051 H   0  0  0  0  0  0  0  0  0  0  0  0
   40.2345   28.6746   36.1564 H   0  0  0  0  0  0  0  0  0  0  0  0
   40.3793   27.5328   34.8232 H   0  0  0  0  0  0  0  0  0  0  0  0
   39.3885   28.9758   34.6448 H   0  0  0  0  0  0  0  0  0  0  0  0
   38.6536   28.4842   37.6941 H   0  0  0  0  0  0  0  0  0  0  0  0
   37.1143   28.6570   36.8598 H   0  0  0  0  0  0  0  0  0  0  0  0
   37.5059   27.1506   37.6691 H   0  0  0  0  0  0  0  0  0  0  0  0
   39.0309   26.9870   33.1967 H   0  0  0  0  0  0  0  0  0  0  0  0
   36.0999   26.3004   36.2959 H   0  0  0  0  0  0  0  0  0  0  0  0
   34.6669   25.2340   34.6813 H   0  0  0  0  0  0  0  0  0  0  0  0
   34.0118   24.9368   32.4784 H   0  0  0  0  0  0  0  0  0  0  0  0
   32.3096   23.1486   28.3415 H   0  0  0  0  0  0  0  0  0  0  0  0
   33.8554   18.6469   27.9812 H   0  0  0  0  0  0  0  0  0  0  0  0
   31.4605   19.3889   25.2073 H   0  0  0  0  0  0  0  0  0  0  0  0
   31.6242   22.8718   25.6921 H   0  0  0  0  0  0  0  0  0  0  0  0
   33.0743   23.4376   24.0454 H   0  0  0  0  0  0  0  0  0  0  0  0
   34.5938   22.6627   26.3533 H   0  0  0  0  0  0  0  0  0  0  0  0
   34.0942   24.6049   25.4571 H   0  0  0  0  0  0  0  0  0  0  0  0
  1  5  1  0
  1 20  1  0
  1 28  1  0
  2  3  1  0
  2 23  1  0
  2 24  1  0
  2 29  1  6
  3  4  1  0
  3 21  1  0
  3 30  1  1
  4 22  1  0
  4 31  1  0
  4 32  1  0
  5  6  1  0
  5 19  2  0
  6 16  2  0
  6 17  1  0
  7  9  2  0
  7 15  1  0
  7 16  1  0
  8 12  1  0
  8 13  2  0
  8 14  1  0
  9 13  1  0
  9 33  1  0
 10 12  1  0
 10 34  1  0
 10 35  1  0
 10 36  1  0
 11 12  1  0
 11 37  1  0
 11 38  1  0
 11 39  1  0
 13 40  1  0
 14 15  2  0
 14 41  1  0
 15 42  1  0
 16 43  1  0
 17 18  3  0
 20 21  1  0
 20 26  1  0
 20 44  1  1
 22 45  1  0
 23 46  1  0
 24 25  1  0
 24 26  1  0
 24 47  1  6
 25 48  1  0
 26 27  1  0
 26 49  1  6
 27 50  1  0
M  END
$$$$
