7P1F - prepared_ligand4
     RDKit          3D

 30 30  0  0  1  0  0  0  0  0999 V2000
    9.8410   -8.7639   16.5519 C   0  0  0  0  0  0  0  0  0  0  0  0
   11.9551   -9.9448   15.6495 C   0  0  0  0  0  0  0  0  0  0  0  0
   12.7927  -11.1699   15.3569 C   0  0  1  0  0  0  0  0  0  0  0  0
   11.8506  -12.3740   15.1676 C   0  0  2  0  0  0  0  0  0  0  0  0
   10.7922  -12.4254   16.3053 C   0  0  2  0  0  0  0  0  0  0  0  0
    9.7167  -13.5168   16.0958 C   0  0  1  0  0  0  0  0  0  0  0  0
    8.7320  -13.6810   17.2885 C   0  0  1  0  0  0  0  0  0  0  0  0
    7.6157  -14.7230   17.0538 C   0  0  0  0  0  0  0  0  0  0  0  0
   12.5770  -13.5833   15.0617 O   0  0  0  0  0  0  0  0  0  0  0  0
    8.6976   -8.9989   17.0115 O   0  0  0  0  0  0  0  0  0  0  0  0
   10.3718   -7.6449   16.3863 O   0  0  0  0  0  0  0  0  0  0  0  0
   13.5985  -10.9555   14.2221 O   0  0  0  0  0  0  0  0  0  0  0  0
   10.0869  -11.1906   16.5179 O   0  0  0  0  0  0  0  0  0  0  0  0
   10.7092  -10.0215   16.1826 C   0  0  0  0  0  0  0  0  0  0  0  0
    8.9968  -13.1984   14.9189 O   0  0  0  0  0  0  0  0  0  0  0  0
    9.4206  -14.0002   18.4894 O   0  0  0  0  0  0  0  0  0  0  0  0
    8.1618  -15.9969   16.7769 O   0  0  0  0  0  0  0  0  0  0  0  0
   12.4012   -8.9788   15.4718 H   0  0  0  0  0  0  0  0  0  0  0  0
   13.4693  -11.3326   16.1976 H   0  0  0  0  0  0  0  0  0  0  0  0
   11.3344  -12.2597   14.2140 H   0  0  0  0  0  0  0  0  0  0  0  0
   11.3253  -12.6366   17.2314 H   0  0  0  0  0  0  0  0  0  0  0  0
   10.2179  -14.4691   15.9203 H   0  0  0  0  0  0  0  0  0  0  0  0
    8.2414  -12.7237   17.4661 H   0  0  0  0  0  0  0  0  0  0  0  0
    6.9844  -14.4332   16.2133 H   0  0  0  0  0  0  0  0  0  0  0  0
    6.9642  -14.8020   17.9231 H   0  0  0  0  0  0  0  0  0  0  0  0
   13.0397  -13.5881   14.2142 H   0  0  0  0  0  0  0  0  0  0  0  0
   14.2870  -11.6296   14.2270 H   0  0  0  0  0  0  0  0  0  0  0  0
    8.4909  -13.9684   14.6380 H   0  0  0  0  0  0  0  0  0  0  0  0
   10.0175  -13.2774   18.7087 H   0  0  0  0  0  0  0  0  0  0  0  0
    8.7997  -16.2120   17.4648 H   0  0  0  0  0  0  0  0  0  0  0  0
  1 10  1  0
  1 11  2  0
  1 14  1  0
  2  3  1  0
  2 14  2  0
  2 18  1  0
  3  4  1  0
  3 12  1  0
  3 19  1  1
  4  5  1  0
  4  9  1  0
  4 20  1  6
  5  6  1  0
  5 13  1  0
  5 21  1  1
  6  7  1  0
  6 15  1  0
  6 22  1  6
  7  8  1  0
  7 16  1  0
  7 23  1  1
  8 17  1  0
  8 24  1  0
  8 25  1  0
  9 26  1  0
 12 27  1  0
 13 14  1  0
 15 28  1  0
 16 29  1  0
 17 30  1  0
M  CHG  1  10  -1
M  END
$$$$
