3SYR_ligand
     RDKit          3D

 20 21  0  0  1  0  0  0  0  0999 V2000
   35.4417   23.4665   28.7647 C   0  0  0  0  0  0  0  0  0  0  0  0
   37.6036   23.9260   29.5738 F   0  0  0  0  0  0  0  0  0  0  0  0
   36.2628   24.0572   29.6512 C   0  0  0  0  0  0  0  0  0  0  0  0
   35.6859   24.8592   30.7170 C   0  0  0  0  0  0  0  0  0  0  0  0
   36.3324   25.4766   31.5593 O   0  0  0  0  0  0  0  0  0  0  0  0
   34.3210   24.8726   30.6843 N   0  0  0  0  0  0  0  0  0  0  0  0
   33.4507   24.2765   29.8104 C   0  0  0  0  0  0  0  0  0  0  0  0
   32.2359   24.4130   29.9713 O   0  0  0  0  0  0  0  0  0  0  0  0
   33.2496   22.7956   27.8524 C   0  0  1  0  0  0  0  0  0  0  0  0
   34.0681   23.5577   28.8020 N   0  0  0  0  0  0  0  0  0  0  0  0
   33.6565   23.0631   26.3827 C   0  0  2  0  0  0  0  0  0  0  0  0
   33.7506   24.4492   26.1072 O   0  0  0  0  0  0  0  0  0  0  0  0
   32.6609   22.3553   25.4334 C   0  0  1  0  0  0  0  0  0  0  0  0
   33.0645   22.4448   24.0784 O   0  0  0  0  0  0  0  0  0  0  0  0
   32.4675   20.8777   25.8299 C   0  0  2  0  0  0  0  0  0  0  0  0
   31.4004   20.2947   25.1073 O   0  0  0  0  0  0  0  0  0  0  0  0
   32.2243   20.7255   27.3538 C   0  0  2  0  0  0  0  0  0  0  0  0
   33.2380   21.4095   28.1005 O   0  0  0  0  0  0  0  0  0  0  0  0
   32.1000   19.2652   27.8349 C   0  0  0  0  0  0  0  0  0  0  0  0
   33.1302   18.4480   27.3264 O   0  0  0  0  0  0  0  0  0  0  0  0
  1  3  2  0
  1 10  1  0
  2  3  1  0
  3  4  1  0
  4  5  2  0
  4  6  1  0
  6  7  1  0
  7  8  2  0
  7 10  1  0
  9 10  1  1
  9 11  1  0
  9 18  1  0
 11 12  1  6
 11 13  1  0
 13 14  1  6
 13 15  1  0
 15 16  1  6
 15 17  1  0
 17 18  1  0
 17 19  1  1
 19 20  1  0
M  END
$$$$
