8A2D - prepared_ligand3
     RDKit          3D

 87 94  0  0  1  0  0  0  0  0999 V2000
   -7.0595   -9.6042   22.3276 C   0  0  1  0  0  0  0  0  0  0  0  0
   -7.4582  -10.4212   23.5717 C   0  0  0  0  0  0  0  0  0  0  0  0
   -9.7861   -6.2717   24.7876 C   0  0  0  0  0  0  0  0  0  0  0  0
   -7.7012   -8.2142   22.2830 C   0  0  0  0  0  0  0  0  0  0  0  0
   -8.4720   -7.5336   23.2271 C   0  0  0  0  0  0  0  0  0  0  0  0
   -9.0785   -7.6250   24.6058 C   0  0  0  0  0  0  0  0  0  0  0  0
  -10.8224   -4.7870   22.8319 C   0  0  0  0  0  0  0  0  0  0  0  0
   -2.5862  -10.8687   20.9485 C   0  0  0  0  0  0  0  0  0  0  0  0
   -6.8330  -10.2537   24.6212 O   0  0  0  0  0  0  0  0  0  0  0  0
   -2.8449  -12.0352   19.9898 C   0  0  0  0  0  0  0  0  0  0  0  0
   -9.0350  -12.1374   24.3612 C   0  0  0  0  0  0  0  0  0  0  0  0
    6.5497  -13.9091   14.0141 C   0  0  1  0  0  0  0  0  0  0  0  0
  -10.4131  -13.6748   25.0578 C   0  0  0  0  0  0  0  0  0  0  0  0
   -3.6599  -10.1915   21.5584 C   0  0  0  0  0  0  0  0  0  0  0  0
   -3.4341   -9.0933   22.4453 C   0  0  0  0  0  0  0  0  0  0  0  0
   -4.7361   -8.7017   22.8436 C   0  0  0  0  0  0  0  0  0  0  0  0
   -2.1325   -8.6681   22.7403 C   0  0  0  0  0  0  0  0  0  0  0  0
    1.9659  -12.5240   19.8393 C   0  0  0  0  0  0  0  0  0  0  0  0
    3.2797  -12.0967   20.0275 C   0  0  0  0  0  0  0  0  0  0  0  0
    4.3296  -12.8426   19.5014 C   0  0  0  0  0  0  0  0  0  0  0  0
   -9.6637   -5.5196   23.4548 C   0  0  0  0  0  0  0  0  0  0  0  0
   -8.8075   -6.3486   22.6523 N   0  0  0  0  0  0  0  0  0  0  0  0
   -8.2283   -6.3564   21.4181 C   0  0  0  0  0  0  0  0  0  0  0  0
   -7.5683   -7.4641   21.1931 N   0  0  0  0  0  0  0  0  0  0  0  0
   -9.6476   -4.0119   23.4007 C   0  0  0  0  0  0  0  0  0  0  0  0
   -5.5987   -9.5524   22.1942 N   0  0  0  0  0  0  0  0  0  0  0  0
   -1.2856  -10.4284   21.2711 C   0  0  0  0  0  0  0  0  0  0  0  0
   -1.0779   -9.3495   22.1325 C   0  0  0  0  0  0  0  0  0  0  0  0
   -1.8349   -7.5278   23.6969 C   0  0  0  0  0  0  0  0  0  0  0  0
   -2.5789   -6.4602   23.4150 F   0  0  0  0  0  0  0  0  0  0  0  0
   -2.0799   -7.9119   24.9474 F   0  0  0  0  0  0  0  0  0  0  0  0
   -0.0975  -11.0954   20.7494 C   0  0  0  0  0  0  0  0  0  0  0  0
    0.8623  -11.7225   20.3399 C   0  0  0  0  0  0  0  0  0  0  0  0
    4.0611  -14.0083   18.7821 C   0  0  0  0  0  0  0  0  0  0  0  0
    2.7478  -14.4572   18.6335 C   0  0  0  0  0  0  0  0  0  0  0  0
    1.6974  -13.7120   19.1595 C   0  0  0  0  0  0  0  0  0  0  0  0
    5.1953  -14.7751   18.1251 C   0  0  0  0  0  0  0  0  0  0  0  0
   -4.9914  -10.4750   21.4247 N   0  0  0  0  0  0  0  0  0  0  0  0
   -8.4981  -11.2704   23.4178 N   0  0  0  0  0  0  0  0  0  0  0  0
   -8.4858  -12.3112   26.0102 S   0  0  0  0  0  0  0  0  0  0  0  0
   -9.7094  -13.5106   26.2410 C   0  0  0  0  0  0  0  0  0  0  0  0
  -10.0333  -12.9222   24.0444 N   0  0  0  0  0  0  0  0  0  0  0  0
    6.2493  -15.5646   15.9478 C   0  0  0  0  0  0  0  0  0  0  0  0
    6.2201  -15.3643   14.4184 C   0  0  0  0  0  0  0  0  0  0  0  0
    5.5139  -12.9741   14.6822 C   0  0  0  0  0  0  0  0  0  0  0  0
    5.5295  -13.1043   16.2171 C   0  0  0  0  0  0  0  0  0  0  0  0
    5.2417  -14.5818   16.5914 N   0  0  2  0  0  0  0  0  0  0  0  0
    8.0258  -13.5257   14.2879 C   0  0  0  0  0  0  0  0  0  0  0  0
    8.3054  -12.2187   13.8283 O   0  0  0  0  0  0  0  0  0  0  0  0
   -7.4304  -10.1439   21.4531 H   0  0  0  0  0  0  0  0  0  0  0  0
   -9.3112   -5.6996   25.5864 H   0  0  0  0  0  0  0  0  0  0  0  0
  -10.8259   -6.4164   25.0760 H   0  0  0  0  0  0  0  0  0  0  0  0
   -9.7796   -8.4555   24.6786 H   0  0  0  0  0  0  0  0  0  0  0  0
   -8.3251   -7.7811   25.3775 H   0  0  0  0  0  0  0  0  0  0  0  0
  -11.7779   -4.8049   23.3497 H   0  0  0  0  0  0  0  0  0  0  0  0
  -10.9429   -4.8093   21.7494 H   0  0  0  0  0  0  0  0  0  0  0  0
   -1.9773  -12.6687   19.8122 H   0  0  0  0  0  0  0  0  0  0  0  0
   -3.6194  -12.6862   20.3963 H   0  0  0  0  0  0  0  0  0  0  0  0
   -3.2000  -11.6631   19.0296 H   0  0  0  0  0  0  0  0  0  0  0  0
    6.3891  -13.8438   12.9361 H   0  0  0  0  0  0  0  0  0  0  0  0
  -11.2270  -14.3697   24.9139 H   0  0  0  0  0  0  0  0  0  0  0  0
   -5.1175   -7.9468   23.5138 H   0  0  0  0  0  0  0  0  0  0  0  0
    3.4921  -11.1799   20.5572 H   0  0  0  0  0  0  0  0  0  0  0  0
    5.3458  -12.4994   19.6267 H   0  0  0  0  0  0  0  0  0  0  0  0
   -8.3497   -5.5132   20.7571 H   0  0  0  0  0  0  0  0  0  0  0  0
   -9.7756   -3.4569   24.3304 H   0  0  0  0  0  0  0  0  0  0  0  0
   -8.9720   -3.5107   22.7074 H   0  0  0  0  0  0  0  0  0  0  0  0
   -0.0670   -9.0333   22.3541 H   0  0  0  0  0  0  0  0  0  0  0  0
   -0.7921   -7.2188   23.6490 H   0  0  0  0  0  0  0  0  0  0  0  0
    2.5366  -15.3625   18.0827 H   0  0  0  0  0  0  0  0  0  0  0  0
    0.6801  -14.0497   19.0165 H   0  0  0  0  0  0  0  0  0  0  0  0
    5.0720  -15.8477   18.2862 H   0  0  0  0  0  0  0  0  0  0  0  0
    6.1769  -14.4743   18.4962 H   0  0  0  0  0  0  0  0  0  0  0  0
   -8.9588  -11.2729   22.5164 H   0  0  0  0  0  0  0  0  0  0  0  0
   -9.8250  -14.0142   27.1838 H   0  0  0  0  0  0  0  0  0  0  0  0
    7.2266  -15.3684   16.3917 H   0  0  0  0  0  0  0  0  0  0  0  0
    5.9297  -16.5702   16.2235 H   0  0  0  0  0  0  0  0  0  0  0  0
    6.9346  -16.0489   13.9596 H   0  0  0  0  0  0  0  0  0  0  0  0
    5.2388  -15.6474   14.0338 H   0  0  0  0  0  0  0  0  0  0  0  0
    4.5119  -13.1898   14.3070 H   0  0  0  0  0  0  0  0  0  0  0  0
    5.7178  -11.9356   14.4178 H   0  0  0  0  0  0  0  0  0  0  0  0
    4.7446  -12.4936   16.6640 H   0  0  0  0  0  0  0  0  0  0  0  0
    6.4880  -12.8309   16.6610 H   0  0  0  0  0  0  0  0  0  0  0  0
    4.3284  -14.8071   16.2224 H   0  0  0  0  0  0  0  0  0  0  0  0
    8.6972  -14.2137   13.7718 H   0  0  0  0  0  0  0  0  0  0  0  0
    8.2747  -13.5794   15.3472 H   0  0  0  0  0  0  0  0  0  0  0  0
    9.2268  -12.0169   14.0097 H   0  0  0  0  0  0  0  0  0  0  0  0
  1  2  1  0
  1  4  1  0
  1 26  1  0
  1 50  1  6
  2  9  2  0
  2 39  1  0
  3  6  1  0
  3 21  1  0
  3 51  1  0
  3 52  1  0
  4  5  2  0
  4 24  1  0
  5  6  1  0
  5 22  1  0
  6 53  1  0
  6 54  1  0
  7 21  1  0
  7 25  1  0
  7 55  1  0
  7 56  1  0
  8 10  1  0
  8 14  1  0
  8 27  2  0
 10 57  1  0
 10 58  1  0
 10 59  1  0
 11 39  1  0
 11 40  1  0
 11 42  2  0
 12 44  1  0
 12 45  1  0
 12 48  1  0
 12 60  1  6
 13 41  2  0
 13 42  1  0
 13 61  1  0
 14 15  1  0
 14 38  2  0
 15 16  2  0
 15 17  1  0
 16 26  1  0
 16 62  1  0
 17 28  2  0
 17 29  1  0
 18 19  2  0
 18 33  1  0
 18 36  1  0
 19 20  1  0
 19 63  1  0
 20 34  2  0
 20 64  1  0
 21 22  1  0
 21 25  1  0
 22 23  1  0
 23 24  2  0
 23 65  1  0
 25 66  1  0
 25 67  1  0
 26 38  1  0
 27 28  1  0
 27 32  1  0
 28 68  1  0
 29 30  1  0
 29 31  1  0
 29 69  1  0
 32 33  3  0
 34 35  1  0
 34 37  1  0
 35 36  2  0
 35 70  1  0
 36 71  1  0
 37 47  1  0
 37 72  1  0
 37 73  1  0
 39 74  1  0
 40 41  1  0
 41 75  1  0
 43 44  1  0
 43 47  1  0
 43 76  1  0
 43 77  1  0
 44 78  1  0
 44 79  1  0
 45 46  1  0
 45 80  1  0
 45 81  1  0
 46 47  1  0
 46 82  1  0
 46 83  1  0
 47 84  1  6
 48 49  1  0
 48 85  1  0
 48 86  1  0
 49 87  1  0
M  CHG  1  47   1
M  END
$$$$
