3GY4_ligand
     RDKit          3D

 10 10  0  0  1  0  0  0  0  0999 V2000
   -2.8876   14.0567   14.1891 N   0  0  0  0  0  0  0  0  0  0  0  0
   -1.5737   12.3823   15.0000 N   0  0  0  0  0  0  0  0  0  0  0  0
   -2.1019   13.5856   15.1461 C   0  0  0  0  0  0  0  0  0  0  0  0
   -1.8154   14.3881   16.3570 C   0  0  0  0  0  0  0  0  0  0  0  0
   -1.2151   14.5332   18.7214 C   0  0  0  0  0  0  0  0  0  0  0  0
   -1.4596   13.7782   17.5783 C   0  0  0  0  0  0  0  0  0  0  0  0
   -1.9017   15.7943   16.3401 C   0  0  0  0  0  0  0  0  0  0  0  0
   -1.6717   16.5498   17.4827 C   0  0  0  0  0  0  0  0  0  0  0  0
   -1.3361   15.9169   18.6717 C   0  0  0  0  0  0  0  0  0  0  0  0
   -1.1342   16.6800   19.8152 N   0  0  0  0  0  0  0  0  0  0  0  0
  1  3  1  0
  2  3  2  0
  3  4  1  0
  4  6  2  0
  4  7  1  0
  5  6  1  0
  5  9  2  0
  7  8  2  0
  8  9  1  0
  9 10  1  0
M  CHG  1   2   1
M  END
$$$$
