4TWP_ligand
     RDKit          3D

 28 31  0  0  1  0  0  0  0  0999 V2000
   72.0047   48.2784   27.5114 O   0  0  0  0  0  0  0  0  0  0  0  0
   73.0639   48.3139   26.8823 C   0  0  0  0  0  0  0  0  0  0  0  0
   73.7048   49.4600   26.5934 N   0  0  0  0  0  0  0  0  0  0  0  0
   73.2399   50.7929   26.9515 C   0  0  0  0  0  0  0  0  0  0  0  0
   73.7308   47.0484   26.3820 C   0  0  0  0  0  0  0  0  0  0  0  0
   74.3479   47.0607   25.1173 C   0  0  0  0  0  0  0  0  0  0  0  0
   74.9432   45.9174   24.5898 C   0  0  0  0  0  0  0  0  0  0  0  0
   74.9283   44.7303   25.3114 C   0  0  0  0  0  0  0  0  0  0  0  0
   73.7487   45.8406   27.1234 C   0  0  0  0  0  0  0  0  0  0  0  0
   74.3282   44.6938   26.5650 C   0  0  0  0  0  0  0  0  0  0  0  0
   73.0973   45.7130   28.7848 S   0  0  0  0  0  0  0  0  0  0  0  0
   74.3680   44.8420   29.6625 C   0  0  0  0  0  0  0  0  0  0  0  0
   75.7129   45.1152   29.4053 C   0  0  0  0  0  0  0  0  0  0  0  0
   76.7310   44.4026   30.0308 C   0  0  0  0  0  0  0  0  0  0  0  0
   73.9995   43.8747   30.5975 C   0  0  0  0  0  0  0  0  0  0  0  0
   75.0108   43.1281   31.2218 C   0  0  0  0  0  0  0  0  0  0  0  0
   74.8493   42.1020   32.1052 N   0  0  0  0  0  0  0  0  0  0  0  0
   76.1108   41.7324   32.3664 N   0  0  0  0  0  0  0  0  0  0  0  0
   77.0955   42.4162   31.7020 C   0  0  0  0  0  0  0  0  0  0  0  0
   76.3898   43.3821   30.9298 C   0  0  0  0  0  0  0  0  0  0  0  0
   78.4853   42.0364   31.8531 C   0  0  0  0  0  0  0  0  0  0  0  0
   79.5190   42.4985   31.1256 C   0  0  0  0  0  0  0  0  0  0  0  0
   80.9313   42.0894   31.2347 C   0  0  0  0  0  0  0  0  0  0  0  0
   81.7937   42.7619   30.4246 N   0  0  0  0  0  0  0  0  0  0  0  0
   83.1042   42.4088   30.4381 C   0  0  0  0  0  0  0  0  0  0  0  0
   83.6049   41.3914   31.2499 C   0  0  0  0  0  0  0  0  0  0  0  0
   82.7181   40.7095   32.0827 C   0  0  0  0  0  0  0  0  0  0  0  0
   81.3657   41.0550   32.0780 C   0  0  0  0  0  0  0  0  0  0  0  0
  1  2  2  0
  2  3  1  0
  2  5  1  0
  3  4  1  0
  5  6  2  0
  5  9  1  0
  6  7  1  0
  7  8  2  0
  8 10  1  0
  9 10  2  0
  9 11  1  0
 11 12  1  0
 12 13  1  0
 12 15  2  0
 13 14  2  0
 14 20  1  0
 15 16  1  0
 16 17  2  0
 16 20  1  0
 17 18  1  0
 18 19  1  0
 19 20  2  0
 19 21  1  0
 21 22  2  0
 22 23  1  0
 23 24  2  0
 23 28  1  0
 24 25  1  0
 25 26  2  0
 26 27  1  0
 27 28  2  0
M  END
$$$$
