3RYJ_ligand
     RDKit          3D

 18 18  0  0  1  0  0  0  0  0999 V2000
   15.3551    0.3274   16.9855 S   0  0  0  0  0  0  0  0  0  0  0  0
   18.7895    5.3644   13.8908 N   0  0  0  0  0  0  0  0  0  0  0  0
   16.6675    5.7838   13.2148 O   0  0  0  0  0  0  0  0  0  0  0  0
   16.9774    3.9884   14.7563 C   0  0  0  0  0  0  0  0  0  0  0  0
   17.3345    1.8552   15.8544 C   0  0  0  0  0  0  0  0  0  0  0  0
   17.8309    2.9443   15.1455 C   0  0  0  0  0  0  0  0  0  0  0  0
   15.9823    1.7983   16.1825 C   0  0  0  0  0  0  0  0  0  0  0  0
   15.6343    3.9486   15.1514 C   0  0  0  0  0  0  0  0  0  0  0  0
   15.1414    2.8649   15.8690 C   0  0  0  0  0  0  0  0  0  0  0  0
   17.4650    5.1240   13.8856 C   0  0  0  0  0  0  0  0  0  0  0  0
   20.5262    7.4767   14.9720 F   0  0  0  0  0  0  0  0  0  0  0  0
   18.5859    8.2068   14.4500 F   0  0  0  0  0  0  0  0  0  0  0  0
   20.2693    8.6480   13.1869 F   0  0  0  0  0  0  0  0  0  0  0  0
   19.4599    6.4219   13.1318 C   0  0  0  0  0  0  0  0  0  0  0  0
   15.7197    0.4235   18.3996 O   0  0  0  0  0  0  0  0  0  0  0  0
   19.7105    7.7059   13.9453 C   0  0  0  0  0  0  0  0  0  0  0  0
   15.7887   -0.8152   16.1721 O   0  0  0  0  0  0  0  0  0  0  0  0
   13.6095    0.3844   16.8762 N   0  0  0  0  0  0  0  0  0  0  0  0
  1  7  1  0
  1 15  2  0
  1 17  2  0
  1 18  1  0
  2 10  1  0
  2 14  1  0
  3 10  2  0
  4  6  2  0
  4  8  1  0
  4 10  1  0
  5  6  1  0
  5  7  2  0
  7  9  1  0
  8  9  2  0
 11 16  1  0
 12 16  1  0
 13 16  1  0
 14 16  1  0
M  END
$$$$
