7SDD - prepared_ligand
     RDKit          3D

 38 38  0  0  1  0  0  0  0  0999 V2000
   11.1246   -1.2160   -5.3124 C   0  0  2  0  0  0  0  0  0  0  0  0
   11.5464   -0.2537   -4.3441 O   0  0  0  0  0  0  0  0  0  0  0  0
   12.3901   -1.8888   -5.9005 C   0  0  2  0  0  0  0  0  0  0  0  0
   13.2910   -0.9068   -6.3657 O   0  0  0  0  0  0  0  0  0  0  0  0
   12.0440   -2.8613   -7.0510 C   0  0  2  0  0  0  0  0  0  0  0  0
   13.1885   -3.4154   -7.6963 O   0  0  0  0  0  0  0  0  0  0  0  0
   11.2211   -2.1407   -8.1330 C   0  0  1  0  0  0  0  0  0  0  0  0
   10.9407   -3.0166   -9.2107 O   0  0  0  0  0  0  0  0  0  0  0  0
    9.9299   -1.4946   -7.5900 C   0  0  2  0  0  0  0  0  0  0  0  0
    9.2862   -0.7944   -8.6484 O   0  0  0  0  0  0  0  0  0  0  0  0
   10.2194   -0.5539   -6.3871 C   0  0  1  0  0  0  0  0  0  0  0  0
    9.0139   -0.1201   -5.7862 O   0  0  0  0  0  0  0  0  0  0  0  0
   11.0050   -0.4166   -2.7169 P   0  0  2  0  0  0  0  0  0  0  0  0
    9.4998   -0.5445   -2.7169 O   0  0  0  0  0  0  0  0  0  0  0  0
   11.7487    0.5960   -1.8764 O   0  0  0  0  0  0  0  0  0  0  0  0
   11.6681   -1.9552   -2.3933 O   0  0  0  0  0  0  0  0  0  0  0  0
   14.0991   -4.6484   -6.9130 P   0  0  2  0  0  0  0  0  0  0  0  0
   14.9793   -5.3097   -7.9444 O   0  0  0  0  0  0  0  0  0  0  0  0
   12.8371   -5.7252   -6.5803 O   0  0  0  0  0  0  0  0  0  0  0  0
   14.6350   -4.1296   -5.6010 O   0  0  0  0  0  0  0  0  0  0  0  0
   11.2770   -2.5491  -10.8721 P   0  0  0  0  0  0  0  0  0  0  0  0
   11.5644   -1.0400  -10.8838 O   0  0  0  0  0  0  0  0  0  0  0  0
   12.4997   -3.3672  -11.3096 O   0  0  0  0  0  0  0  0  0  0  0  0
   10.0213   -2.9096  -11.6695 O   0  0  0  0  0  0  0  0  0  0  0  0
    7.6145   -1.1017   -9.1290 P   0  0  0  0  0  0  0  0  0  0  0  0
    6.7735   -0.9948   -7.8464 O   0  0  0  0  0  0  0  0  0  0  0  0
    7.5459   -2.5132   -9.7404 O   0  0  0  0  0  0  0  0  0  0  0  0
    7.2749    0.0012  -10.1474 O   0  0  0  0  0  0  0  0  0  0  0  0
   10.5455   -1.9952   -4.8120 H   0  0  0  0  0  0  0  0  0  0  0  0
   12.8947   -2.4031   -5.0845 H   0  0  0  0  0  0  0  0  0  0  0  0
   13.9744   -1.3369   -6.8934 H   0  0  0  0  0  0  0  0  0  0  0  0
   11.4485   -3.6865   -6.6624 H   0  0  0  0  0  0  0  0  0  0  0  0
   11.8598   -1.3456   -8.5151 H   0  0  0  0  0  0  0  0  0  0  0  0
    9.2609   -2.2914   -7.2700 H   0  0  0  0  0  0  0  0  0  0  0  0
   10.7147    0.3412   -6.7671 H   0  0  0  0  0  0  0  0  0  0  0  0
    9.2106    0.1563   -4.8868 H   0  0  0  0  0  0  0  0  0  0  0  0
   12.6226   -2.1076   -2.2648 H   0  0  0  0  0  0  0  0  0  0  0  0
   12.8075   -6.6093   -6.9928 H   0  0  0  0  0  0  0  0  0  0  0  0
  1  2  1  0
  1  3  1  0
  1 11  1  0
  1 29  1  1
  2 13  1  0
  3  4  1  0
  3  5  1  0
  3 30  1  1
  4 31  1  0
  5  6  1  0
  5  7  1  0
  5 32  1  1
  6 17  1  0
  7  8  1  0
  7  9  1  0
  7 33  1  6
  8 21  1  0
  9 10  1  0
  9 11  1  0
  9 34  1  1
 10 25  1  0
 11 12  1  0
 11 35  1  6
 12 36  1  0
 13 14  2  0
 13 15  1  1
 13 16  1  0
 16 37  1  0
 17 18  2  0
 17 19  1  0
 17 20  1  1
 19 38  1  0
 21 22  1  0
 21 23  1  0
 21 24  2  0
 25 26  1  0
 25 27  2  0
 25 28  1  0
M  CHG  6  15  -1  20  -1  22  -1  23  -1  26  -1  28  -1
M  END
$$$$
