3E93_ligand
     RDKit          3D

 37 42  0  0  1  0  0  0  0  0999 V2000
   41.0900   29.7990   36.2679 O   0  0  0  0  0  0  0  0  0  0  0  0
   40.1888   29.5626   35.4623 C   0  0  0  0  0  0  0  0  0  0  0  0
   39.3066   28.5456   35.6042 N   0  0  0  0  0  0  0  0  0  0  0  0
   39.2506   27.6457   36.6853 C   0  0  0  0  0  0  0  0  0  0  0  0
   39.5022   28.0322   38.0106 C   0  0  0  0  0  0  0  0  0  0  0  0
   39.4943   27.1081   39.0712 C   0  0  0  0  0  0  0  0  0  0  0  0
   39.1692   25.7769   38.7546 C   0  0  0  0  0  0  0  0  0  0  0  0
   38.8740   25.3885   37.4490 C   0  0  0  0  0  0  0  0  0  0  0  0
   38.9131   26.3201   36.4171 C   0  0  0  0  0  0  0  0  0  0  0  0
   39.7356   27.5193   40.3912 N   0  0  0  0  0  0  0  0  0  0  0  0
   40.6222   28.6623   40.6877 C   0  0  0  0  0  0  0  0  0  0  0  0
   40.3843   29.2731   42.0817 C   0  0  0  0  0  0  0  0  0  0  0  0
   40.5386   28.2766   43.0763 O   0  0  0  0  0  0  0  0  0  0  0  0
   39.6122   27.2178   42.9042 C   0  0  0  0  0  0  0  0  0  0  0  0
   39.7966   26.5639   41.5166 C   0  0  0  0  0  0  0  0  0  0  0  0
   40.0779   30.4028   34.2119 C   0  0  0  0  0  0  0  0  0  0  0  0
   38.8610   30.5725   33.5386 C   0  0  0  0  0  0  0  0  0  0  0  0
   38.7803   31.3832   32.4092 C   0  0  0  0  0  0  0  0  0  0  0  0
   39.9174   32.0341   31.9214 C   0  0  0  0  0  0  0  0  0  0  0  0
   39.7914   32.9316   30.6988 C   0  0  0  0  0  0  0  0  0  0  0  0
   41.1520   31.8566   32.5675 C   0  0  0  0  0  0  0  0  0  0  0  0
   41.2106   31.0596   33.7147 C   0  0  0  0  0  0  0  0  0  0  0  0
   42.3971   32.4793   32.0599 C   0  0  0  0  0  0  0  0  0  0  0  0
   43.2030   31.7806   31.1521 C   0  0  0  0  0  0  0  0  0  0  0  0
   44.3820   32.3255   30.6377 C   0  0  0  0  0  0  0  0  0  0  0  0
   44.7507   33.6202   31.0312 C   0  0  0  0  0  0  0  0  0  0  0  0
   43.9303   34.3047   31.9398 C   0  0  0  0  0  0  0  0  0  0  0  0
   44.4466   35.5359   32.1899 O   0  0  0  0  0  0  0  0  0  0  0  0
   42.7630   33.7606   32.4817 C   0  0  0  0  0  0  0  0  0  0  0  0
   45.8341   34.5272   30.7947 C   0  0  0  0  0  0  0  0  0  0  0  0
   45.6314   35.6505   31.4546 N   0  0  0  0  0  0  0  0  0  0  0  0
   47.0917   34.3090   29.9504 C   0  0  0  0  0  0  0  0  0  0  0  0
   47.8802   33.0463   30.3762 C   0  0  0  0  0  0  0  0  0  0  0  0
   49.0955   32.7781   29.4701 C   0  0  0  0  0  0  0  0  0  0  0  0
   50.0196   34.0072   29.4870 N   0  0  0  0  0  0  0  0  0  0  0  0
   49.2990   35.2871   29.0301 C   0  0  0  0  0  0  0  0  0  0  0  0
   48.0600   35.5225   29.9121 C   0  0  0  0  0  0  0  0  0  0  0  0
  1  2  2  0
  2  3  1  0
  2 16  1  0
  3  4  1  0
  4  5  2  0
  4  9  1  0
  5  6  1  0
  6  7  2  0
  6 10  1  0
  7  8  1  0
  8  9  2  0
 10 11  1  0
 10 15  1  0
 11 12  1  0
 12 13  1  0
 13 14  1  0
 14 15  1  0
 16 17  2  0
 16 22  1  0
 17 18  1  0
 18 19  2  0
 19 20  1  0
 19 21  1  0
 21 22  2  0
 21 23  1  0
 23 24  2  0
 23 29  1  0
 24 25  1  0
 25 26  2  0
 26 27  1  0
 26 30  1  0
 27 28  1  0
 27 29  2  0
 28 31  1  0
 30 31  2  0
 30 32  1  0
 32 33  1  0
 32 37  1  0
 33 34  1  0
 34 35  1  0
 35 36  1  0
 36 37  1  0
M  CHG  1  35   1
M  END
$$$$
