2ZCR_ligand
     RDKit          3D

 28 29  0  0  1  0  0  0  0  0999 V2000
    9.7645   61.7870   37.7624 C   0  0  0  0  0  0  0  0  0  0  0  0
    9.9576   60.3676   38.2914 C   0  0  0  0  0  0  0  0  0  0  0  0
   11.3146   59.7558   37.9157 C   0  0  0  0  0  0  0  0  0  0  0  0
   11.5388   58.4289   38.6539 C   0  0  0  0  0  0  0  0  0  0  0  0
   12.8549   57.7500   38.3196 C   0  0  0  0  0  0  0  0  0  0  0  0
   13.0538   57.1642   37.0678 C   0  0  0  0  0  0  0  0  0  0  0  0
   14.2488   56.5031   36.7930 C   0  0  0  0  0  0  0  0  0  0  0  0
   13.8555   57.6842   39.2874 C   0  0  0  0  0  0  0  0  0  0  0  0
   15.0444   57.0222   39.0104 C   0  0  0  0  0  0  0  0  0  0  0  0
   15.2535   56.4173   37.7644 C   0  0  0  0  0  0  0  0  0  0  0  0
   16.5254   55.6926   37.4974 C   0  0  0  0  0  0  0  0  0  0  0  0
   17.1007   54.9104   38.5042 C   0  0  0  0  0  0  0  0  0  0  0  0
   18.3071   54.2606   38.2944 C   0  0  0  0  0  0  0  0  0  0  0  0
   17.1734   55.7903   36.2589 C   0  0  0  0  0  0  0  0  0  0  0  0
   18.3851   55.1397   36.0422 C   0  0  0  0  0  0  0  0  0  0  0  0
   18.9527   54.3775   37.0651 C   0  0  0  0  0  0  0  0  0  0  0  0
   20.2591   53.6329   36.8556 C   0  0  0  0  0  0  0  0  0  0  0  0
   20.0274   52.1247   36.6348 C   0  0  0  0  0  0  0  0  0  0  0  0
   21.2144   51.2327   37.0269 C   0  0  0  0  0  0  0  0  0  0  0  0
   22.4861   51.4410   36.1859 C   0  0  2  0  0  0  0  0  0  0  0  0
   22.6122   50.1982   34.7587 P   0  0  0  0  0  0  0  0  0  0  0  0
   23.8447   50.6703   33.9656 O   0  0  0  0  0  0  0  0  0  0  0  0
   22.7573   48.8373   35.4608 O   0  0  0  0  0  0  0  0  0  0  0  0
   21.2755   50.4033   34.0248 O   0  0  0  0  0  0  0  0  0  0  0  0
   23.9987   51.5684   37.3326 S   0  0  0  0  0  0  0  0  0  0  0  0
   25.1308   51.7870   36.4261 O   0  0  0  0  0  0  0  0  0  0  0  0
   24.0274   50.2981   38.0646 O   0  0  0  0  0  0  0  0  0  0  0  0
   23.6994   52.7352   38.1728 O   0  0  0  0  0  0  0  0  0  0  0  0
  1  2  1  0
  2  3  1  0
  3  4  1  0
  4  5  1  0
  5  6  2  0
  5  8  1  0
  6  7  1  0
  7 10  2  0
  8  9  2  0
  9 10  1  0
 10 11  1  0
 11 12  2  0
 11 14  1  0
 12 13  1  0
 13 16  2  0
 14 15  2  0
 15 16  1  0
 16 17  1  0
 17 18  1  0
 18 19  1  0
 20 19  1  1
 20 21  1  0
 20 25  1  0
 21 22  1  0
 21 23  1  0
 21 24  2  0
 25 26  2  0
 25 27  2  0
 25 28  1  0
M  CHG  3  22  -1  23  -1  28  -1
M  END
$$$$
