8DP2 - prepared_ligand1
     RDKit          3D

 82 84  0  0  1  0  0  0  0  0999 V2000
   65.5756   -2.0188    3.1457 N   0  0  0  0  0  0  0  0  0  0  0  0
   66.8112   -2.3572    3.6637 C   0  0  0  0  0  0  0  0  0  0  0  0
   67.1653   -1.6258    4.7647 N   0  0  0  0  0  0  0  0  0  0  0  0
   66.4880   -0.6440    5.4241 C   0  0  0  0  0  0  0  0  0  0  0  0
   65.1897   -0.3727    4.8392 C   0  0  0  0  0  0  0  0  0  0  0  0
   64.7973   -1.0607    3.7514 C   0  0  0  0  0  0  0  0  0  0  0  0
   67.5719   -3.2257    3.2371 O   0  0  0  0  0  0  0  0  0  0  0  0
   66.9436   -0.0657    6.4069 O   0  0  0  0  0  0  0  0  0  0  0  0
   65.0885   -2.6808    1.9431 C   0  0  1  0  0  0  0  0  0  0  0  0
   63.9153   -3.6272    2.1240 C   0  0  2  0  0  0  0  0  0  0  0  0
   64.3012   -4.7850    2.8457 O   0  0  0  0  0  0  0  0  0  0  0  0
   63.4804   -3.7861    0.6653 C   0  0  1  0  0  0  0  0  0  0  0  0
   63.8274   -2.4218    0.0316 C   0  0  2  0  0  0  0  0  0  0  0  0
   64.6266   -1.7567    1.0076 O   0  0  0  0  0  0  0  0  0  0  0  0
   64.1044   -4.8737   -0.0016 O   0  0  0  0  0  0  0  0  0  0  0  0
   62.6214   -1.5326   -0.3207 C   0  0  0  0  0  0  0  0  0  0  0  0
   61.6814   -1.4670    0.7450 O   0  0  0  0  0  0  0  0  0  0  0  0
   61.3164    0.0804    1.4190 P   0  0  1  0  0  0  0  0  0  0  0  0
   60.1108   -0.0613    2.3212 O   0  0  0  0  0  0  0  0  0  0  0  0
   62.6035    0.7287    1.8776 O   0  0  0  0  0  0  0  0  0  0  0  0
   60.8392    0.8631   -0.0217 O   0  0  0  0  0  0  0  0  0  0  0  0
   60.1295    2.2984   -0.6045 P   0  0  2  0  0  0  0  0  0  0  0  0
   60.8973    2.7329   -1.8318 O   0  0  0  0  0  0  0  0  0  0  0  0
   59.8857    3.2119    0.5716 O   0  0  0  0  0  0  0  0  0  0  0  0
   58.6242    1.6847   -1.1475 O   0  0  0  0  0  0  0  0  0  0  0  0
   57.6439    1.3244   -0.1856 C   0  0  2  0  0  0  0  0  0  0  0  0
   56.8443    0.1157   -0.7181 C   0  0  2  0  0  0  0  0  0  0  0  0
   57.6721   -1.0800   -0.9000 N   0  0  0  0  0  0  0  0  0  0  0  0
   57.9983   -1.9666    0.0524 C   0  0  0  0  0  0  0  0  0  0  0  0
   57.5730   -1.9277    1.2042 O   0  0  0  0  0  0  0  0  0  0  0  0
   58.9111   -3.1010   -0.3810 C   0  0  0  0  0  0  0  0  0  0  0  0
   56.1050    0.5521   -2.0062 C   0  0  1  0  0  0  0  0  0  0  0  0
   55.2809   -0.5030   -2.5047 O   0  0  0  0  0  0  0  0  0  0  0  0
   55.2146    1.7744   -1.7151 C   0  0  2  0  0  0  0  0  0  0  0  0
   54.5646    2.2087   -2.8986 O   0  0  0  0  0  0  0  0  0  0  0  0
   56.0474    2.9251   -1.0901 C   0  0  2  0  0  0  0  0  0  0  0  0
   56.8007    2.4607    0.0373 O   0  0  0  0  0  0  0  0  0  0  0  0
   55.1943    4.1449   -0.6718 C   0  0  0  0  0  0  0  0  0  0  0  0
   54.2155    3.7985    0.2872 O   0  0  0  0  0  0  0  0  0  0  0  0
   55.8367   -1.3153   -3.5432 C   0  0  1  0  0  0  0  0  0  0  0  0
   55.8432   -2.7989   -3.1321 C   0  0  0  0  0  0  0  0  0  0  0  0
   56.3399   -3.6282   -3.8914 O   0  0  0  0  0  0  0  0  0  0  0  0
   54.9950   -1.0709   -4.8063 C   0  0  0  0  0  0  0  0  0  0  0  0
   55.3346   -3.1366   -1.9339 N   0  0  0  0  0  0  0  0  0  0  0  0
   55.1777   -4.5164   -1.4390 C   0  0  2  0  0  0  0  0  0  0  0  0
   54.0280   -5.3251   -2.1473 C   0  0  0  0  0  0  0  0  0  0  0  0
   53.1406   -4.6705   -2.7444 O   0  0  0  0  0  0  0  0  0  0  0  0
   54.0812   -6.5621   -1.9781 O   0  0  0  0  0  0  0  0  0  0  0  0
   54.9393   -4.4646    0.0814 C   0  0  0  0  0  0  0  0  0  0  0  0
   68.0696   -1.8583    5.1529 H   0  0  0  0  0  0  0  0  0  0  0  0
   64.5399    0.3549    5.2924 H   0  0  0  0  0  0  0  0  0  0  0  0
   63.8357   -0.9129    3.2815 H   0  0  0  0  0  0  0  0  0  0  0  0
   65.9334   -3.2007    1.4803 H   0  0  0  0  0  0  0  0  0  0  0  0
   63.1488   -3.0783    2.6680 H   0  0  0  0  0  0  0  0  0  0  0  0
   63.5044   -5.2641    3.0982 H   0  0  0  0  0  0  0  0  0  0  0  0
   62.4047   -3.9678    0.6322 H   0  0  0  0  0  0  0  0  0  0  0  0
   64.4420   -2.5475   -0.8619 H   0  0  0  0  0  0  0  0  0  0  0  0
   65.0574   -4.7650    0.0523 H   0  0  0  0  0  0  0  0  0  0  0  0
   62.1108   -1.9544   -1.1850 H   0  0  0  0  0  0  0  0  0  0  0  0
   62.9620   -0.5483   -0.6403 H   0  0  0  0  0  0  0  0  0  0  0  0
   58.1320    1.0634    0.7554 H   0  0  0  0  0  0  0  0  0  0  0  0
   56.0696   -0.1219    0.0135 H   0  0  0  0  0  0  0  0  0  0  0  0
   58.1404   -1.1601   -1.7927 H   0  0  0  0  0  0  0  0  0  0  0  0
   58.9848   -3.8545    0.4021 H   0  0  0  0  0  0  0  0  0  0  0  0
   58.5238   -3.5769   -1.2823 H   0  0  0  0  0  0  0  0  0  0  0  0
   59.9100   -2.7250   -0.5894 H   0  0  0  0  0  0  0  0  0  0  0  0
   56.8276    0.8394   -2.7736 H   0  0  0  0  0  0  0  0  0  0  0  0
   54.4430    1.4705   -1.0089 H   0  0  0  0  0  0  0  0  0  0  0  0
   53.9160    1.5422   -3.1506 H   0  0  0  0  0  0  0  0  0  0  0  0
   56.7651    3.2884   -1.8281 H   0  0  0  0  0  0  0  0  0  0  0  0
   54.6854    4.5728   -1.5361 H   0  0  0  0  0  0  0  0  0  0  0  0
   55.8270    4.9336   -0.2679 H   0  0  0  0  0  0  0  0  0  0  0  0
   54.6670    3.4991    1.0861 H   0  0  0  0  0  0  0  0  0  0  0  0
   56.8760   -1.0643   -3.7682 H   0  0  0  0  0  0  0  0  0  0  0  0
   55.3012   -1.7093   -5.6348 H   0  0  0  0  0  0  0  0  0  0  0  0
   53.9358   -1.2518   -4.6196 H   0  0  0  0  0  0  0  0  0  0  0  0
   55.0942   -0.0368   -5.1380 H   0  0  0  0  0  0  0  0  0  0  0  0
   54.9635   -2.4054   -1.3435 H   0  0  0  0  0  0  0  0  0  0  0  0
   56.1170   -5.0524   -1.5952 H   0  0  0  0  0  0  0  0  0  0  0  0
   54.8375   -5.4622    0.5103 H   0  0  0  0  0  0  0  0  0  0  0  0
   55.7720   -3.9834    0.5923 H   0  0  0  0  0  0  0  0  0  0  0  0
   54.0333   -3.9101    0.3226 H   0  0  0  0  0  0  0  0  0  0  0  0
  1  2  1  0
  1  6  1  0
  1  9  1  0
  2  3  1  0
  2  7  2  0
  3  4  1  0
  3 50  1  0
  4  5  1  0
  4  8  2  0
  5  6  2  0
  5 51  1  0
  6 52  1  0
  9 10  1  0
  9 14  1  0
  9 53  1  6
 10 11  1  0
 10 12  1  0
 10 54  1  1
 11 55  1  0
 12 13  1  0
 12 15  1  0
 12 56  1  1
 13 14  1  0
 13 16  1  0
 13 57  1  6
 15 58  1  0
 16 17  1  0
 16 59  1  0
 16 60  1  0
 17 18  1  0
 18 19  2  0
 18 20  1  1
 18 21  1  0
 21 22  1  0
 22 23  2  0
 22 24  1  1
 22 25  1  0
 25 26  1  0
 26 27  1  0
 26 37  1  0
 26 61  1  1
 27 28  1  0
 27 32  1  0
 27 62  1  1
 28 29  1  0
 28 63  1  0
 29 30  2  0
 29 31  1  0
 31 64  1  0
 31 65  1  0
 31 66  1  0
 32 33  1  0
 32 34  1  0
 32 67  1  6
 33 40  1  0
 34 35  1  0
 34 36  1  0
 34 68  1  1
 35 69  1  0
 36 37  1  0
 36 38  1  0
 36 70  1  6
 38 39  1  0
 38 71  1  0
 38 72  1  0
 39 73  1  0
 40 41  1  0
 40 43  1  0
 40 74  1  6
 41 42  2  0
 41 44  1  0
 43 75  1  0
 43 76  1  0
 43 77  1  0
 44 45  1  0
 44 78  1  0
 45 46  1  0
 45 49  1  0
 45 79  1  1
 46 47  2  0
 46 48  1  0
 49 80  1  0
 49 81  1  0
 49 82  1  0
M  CHG  3  20  -1  24  -1  48  -1
M  END
$$$$
