7QSW - prepared_ligand4
     RDKit          3D

 30 29  0  0  1  0  0  0  0  0999 V2000
   80.8882   86.0561  110.8402 C   0  0  0  0  0  0  0  0  0  0  0  0
   79.6899   85.2759  110.2296 C   0  0  1  0  0  0  0  0  0  0  0  0
   79.9995   83.7394  110.1480 C   0  0  1  0  0  0  0  0  0  0  0  0
   80.3099   83.0006  111.4951 C   0  0  1  0  0  0  0  0  0  0  0  0
   79.7057   81.5808  111.6344 C   0  0  0  0  0  0  0  0  0  0  0  0
   78.3339   85.5286  110.9926 C   0  0  0  0  0  0  0  0  0  0  0  0
   80.6840   87.4585  110.8266 O   0  0  0  0  0  0  0  0  0  0  0  0
   79.5605   85.7031  108.8664 O   0  0  0  0  0  0  0  0  0  0  0  0
   78.9611   83.0898  109.4381 O   0  0  0  0  0  0  0  0  0  0  0  0
   81.7132   82.9136  111.6015 O   0  0  0  0  0  0  0  0  0  0  0  0
   80.0002   80.9811  112.8822 O   0  0  0  0  0  0  0  0  0  0  0  0
   77.2693   85.4566  110.3311 O   0  0  0  0  0  0  0  0  0  0  0  0
   78.3488   85.7578  112.2235 O   0  0  0  0  0  0  0  0  0  0  0  0
   81.9728   88.5726  111.2680 P   0  0  0  0  0  0  0  0  0  0  0  0
   81.2584   79.7675  113.0263 P   0  0  0  0  0  0  0  0  0  0  0  0
   83.1890   88.1732  110.4119 O   0  0  0  0  0  0  0  0  0  0  0  0
   82.2215   88.3902  112.7751 O   0  0  0  0  0  0  0  0  0  0  0  0
   81.4304   89.9698  110.9333 O   0  0  0  0  0  0  0  0  0  0  0  0
   82.4839   80.3570  112.3130 O   0  0  0  0  0  0  0  0  0  0  0  0
   80.7225   78.5099  112.3269 O   0  0  0  0  0  0  0  0  0  0  0  0
   81.4940   79.5494  114.5293 O   0  0  0  0  0  0  0  0  0  0  0  0
   81.8057   85.8222  110.2987 H   0  0  0  0  0  0  0  0  0  0  0  0
   81.0500   85.7451  111.8697 H   0  0  0  0  0  0  0  0  0  0  0  0
   80.8596   83.6166  109.4841 H   0  0  0  0  0  0  0  0  0  0  0  0
   79.9835   83.5910  112.3482 H   0  0  0  0  0  0  0  0  0  0  0  0
   80.0186   80.9304  110.8171 H   0  0  0  0  0  0  0  0  0  0  0  0
   78.6194   81.6533  111.5770 H   0  0  0  0  0  0  0  0  0  0  0  0
   80.4388   85.7278  108.4697 H   0  0  0  0  0  0  0  0  0  0  0  0
   79.2326   82.1787  109.2907 H   0  0  0  0  0  0  0  0  0  0  0  0
   81.9344   82.1080  112.0899 H   0  0  0  0  0  0  0  0  0  0  0  0
  1  2  1  0
  1  7  1  0
  1 22  1  0
  1 23  1  0
  2  3  1  0
  2  6  1  0
  2  8  1  6
  3  4  1  0
  3  9  1  0
  3 24  1  6
  4  5  1  0
  4 10  1  0
  4 25  1  1
  5 11  1  0
  5 26  1  0
  5 27  1  0
  6 12  2  0
  6 13  1  0
  7 14  1  0
  8 28  1  0
  9 29  1  0
 10 30  1  0
 11 15  1  0
 14 16  2  0
 14 17  1  0
 14 18  1  0
 15 19  2  0
 15 20  1  0
 15 21  1  0
M  CHG  5  13  -1  17  -1  18  -1  20  -1  21  -1
M  END
$$$$
