7P1M - prepared_ligand2
     RDKit          3D

 41 43  0  0  1  0  0  0  0  0999 V2000
   46.6260   -8.5524  -27.8435 O   0  0  0  0  0  0  0  0  0  0  0  0
   45.6048   -8.2720  -28.5151 C   0  0  0  0  0  0  0  0  0  0  0  0
   45.6753   -7.8048  -29.6787 O   0  0  0  0  0  0  0  0  0  0  0  0
   44.2365   -8.4833  -27.8987 C   0  0  0  0  0  0  0  0  0  0  0  0
   44.0931   -8.6636  -26.5066 C   0  0  0  0  0  0  0  0  0  0  0  0
   42.8558   -8.8529  -25.8932 C   0  0  0  0  0  0  0  0  0  0  0  0
   41.7158   -8.8749  -26.7036 C   0  0  0  0  0  0  0  0  0  0  0  0
   40.4093   -9.0653  -26.3519 N   0  0  0  0  0  0  0  0  0  0  0  0
   43.0834   -8.5050  -28.7132 C   0  0  0  0  0  0  0  0  0  0  0  0
   41.8445   -8.6966  -28.0986 C   0  0  0  0  0  0  0  0  0  0  0  0
   40.5506   -8.7719  -28.5770 N   0  0  0  0  0  0  0  0  0  0  0  0
   40.1472   -8.7039  -29.9741 C   0  0  0  0  0  0  0  0  0  0  0  0
   39.7509   -9.0537  -27.4842 C   0  0  0  0  0  0  0  0  0  0  0  0
   38.2600   -9.3065  -27.5692 C   0  0  0  0  0  0  0  0  0  0  0  0
   37.5790   -8.0593  -27.5994 O   0  0  0  0  0  0  0  0  0  0  0  0
   36.1583   -8.1399  -27.5194 C   0  0  2  0  0  0  0  0  0  0  0  0
   35.5120   -8.4592  -28.8604 C   0  0  0  0  0  0  0  0  0  0  0  0
   34.3339   -7.9077  -29.2133 C   0  0  0  0  0  0  0  0  0  0  0  0
   33.5830   -7.0489  -28.4627 O   0  0  0  0  0  0  0  0  0  0  0  0
   34.0216   -6.8633  -27.0965 C   0  0  1  0  0  0  0  0  0  0  0  0
   35.5678   -6.8180  -26.9850 C   0  0  2  0  0  0  0  0  0  0  0  0
   36.0741   -5.6950  -27.6884 O   0  0  0  0  0  0  0  0  0  0  0  0
   33.3604   -5.6219  -26.4739 C   0  0  0  0  0  0  0  0  0  0  0  0
   31.9669   -5.8030  -26.4352 O   0  0  0  0  0  0  0  0  0  0  0  0
   44.9631   -8.6561  -25.8658 H   0  0  0  0  0  0  0  0  0  0  0  0
   42.7863   -8.9877  -24.8230 H   0  0  0  0  0  0  0  0  0  0  0  0
   43.1451   -8.3965  -29.7855 H   0  0  0  0  0  0  0  0  0  0  0  0
   39.0797   -8.5014  -30.0567 H   0  0  0  0  0  0  0  0  0  0  0  0
   40.6899   -7.8969  -30.4690 H   0  0  0  0  0  0  0  0  0  0  0  0
   40.3811   -9.6493  -30.4639 H   0  0  0  0  0  0  0  0  0  0  0  0
   37.9308   -9.9108  -26.7221 H   0  0  0  0  0  0  0  0  0  0  0  0
   38.0167   -9.8914  -28.4572 H   0  0  0  0  0  0  0  0  0  0  0  0
   35.9043   -8.9382  -26.8214 H   0  0  0  0  0  0  0  0  0  0  0  0
   35.9953   -9.1388  -29.5461 H   0  0  0  0  0  0  0  0  0  0  0  0
   33.8562   -8.1093  -30.1616 H   0  0  0  0  0  0  0  0  0  0  0  0
   33.6787   -7.7338  -26.5325 H   0  0  0  0  0  0  0  0  0  0  0  0
   35.8676   -6.6899  -25.9448 H   0  0  0  0  0  0  0  0  0  0  0  0
   36.1863   -4.9701  -27.0612 H   0  0  0  0  0  0  0  0  0  0  0  0
   33.5957   -4.7172  -27.0343 H   0  0  0  0  0  0  0  0  0  0  0  0
   33.7114   -5.4739  -25.4518 H   0  0  0  0  0  0  0  0  0  0  0  0
   31.6168   -5.6140  -27.3163 H   0  0  0  0  0  0  0  0  0  0  0  0
  1  2  1  0
  2  3  2  0
  2  4  1  0
  4  5  2  0
  4  9  1  0
  5  6  1  0
  5 25  1  0
  6  7  2  0
  6 26  1  0
  7  8  1  0
  7 10  1  0
  8 13  2  0
  9 10  2  0
  9 27  1  0
 10 11  1  0
 11 12  1  0
 11 13  1  0
 12 28  1  0
 12 29  1  0
 12 30  1  0
 13 14  1  0
 14 15  1  0
 14 31  1  0
 14 32  1  0
 15 16  1  0
 16 17  1  0
 16 21  1  0
 16 33  1  1
 17 18  2  0
 17 34  1  0
 18 19  1  0
 18 35  1  0
 19 20  1  0
 20 21  1  0
 20 23  1  0
 20 36  1  1
 21 22  1  0
 21 37  1  1
 22 38  1  0
 23 24  1  0
 23 39  1  0
 23 40  1  0
 24 41  1  0
M  CHG  1   1  -1
M  END
$$$$
