4CIG_ligand
     RDKit          3D

 37 40  0  0  1  0  0  0  0  0999 V2000
   10.9129  -48.7109   18.0427 C   0  0  0  0  0  0  0  0  0  0  0  0
   11.7795  -49.5487   17.2859 C   0  0  0  0  0  0  0  0  0  0  0  0
    9.8175  -48.0925   17.3994 C   0  0  0  0  0  0  0  0  0  0  0  0
   11.5226  -49.7248   15.9084 C   0  0  0  0  0  0  0  0  0  0  0  0
   10.9071  -45.6445   10.8770 C   0  0  0  0  0  0  0  0  0  0  0  0
    7.3233  -44.7516   12.6919 C   0  0  0  0  0  0  0  0  0  0  0  0
    8.8917  -43.6863   14.1863 C   0  0  0  0  0  0  0  0  0  0  0  0
   11.5290  -44.9253    9.8689 C   0  0  0  0  0  0  0  0  0  0  0  0
    7.8489  -44.0237   11.6291 C   0  0  0  0  0  0  0  0  0  0  0  0
    9.4204  -42.9652   13.1236 C   0  0  0  0  0  0  0  0  0  0  0  0
    9.5661  -48.2814   16.0336 C   0  0  0  0  0  0  0  0  0  0  0  0
   13.0179  -45.8608   12.0612 C   0  0  0  0  0  0  0  0  0  0  0  0
    7.8465  -44.5850   13.9753 C   0  0  0  0  0  0  0  0  0  0  0  0
   10.4361  -49.1043   15.2819 C   0  0  0  0  0  0  0  0  0  0  0  0
   11.6308  -46.1372   11.9634 C   0  0  0  0  0  0  0  0  0  0  0  0
   12.8957  -44.6998    9.9269 C   0  0  0  0  0  0  0  0  0  0  0  0
   13.6567  -45.1580   11.0134 C   0  0  0  0  0  0  0  0  0  0  0  0
    8.8996  -43.1286   11.8332 C   0  0  0  0  0  0  0  0  0  0  0  0
    8.3677  -47.5880   15.4239 C   0  0  0  0  0  0  0  0  0  0  0  0
   13.8219  -46.3183   13.2424 C   0  0  0  0  0  0  0  0  0  0  0  0
   12.2615  -49.1352   20.0291 C   0  0  0  0  0  0  0  0  0  0  0  0
   15.7220  -44.3663   10.0056 C   0  0  0  0  0  0  0  0  0  0  0  0
   10.4107  -41.5058   10.8876 C   0  0  0  0  0  0  0  0  0  0  0  0
    7.2733  -45.3609   15.1526 C   0  0  0  0  0  0  0  0  0  0  0  0
   10.2548  -49.3906   13.7874 C   0  0  0  0  0  0  0  0  0  0  0  0
   10.8614  -46.9950   12.9762 C   0  0  0  0  0  0  0  0  0  0  0  0
   10.9559  -49.0172   11.3799 C   0  0  0  0  0  0  0  0  0  0  0  0
   13.1046  -49.9593   19.2924 C   0  0  0  0  0  0  0  0  0  0  0  0
    8.2501  -46.2839   15.7262 N   0  0  0  0  0  0  0  0  0  0  0  0
   11.1048  -48.5208   12.8346 N   0  0  2  0  0  0  0  0  0  0  0  0
   13.9493  -47.5490   13.4178 O   0  0  0  0  0  0  0  0  0  0  0  0
    7.5656  -48.1884   14.7078 O   0  0  0  0  0  0  0  0  0  0  0  0
   11.1701  -48.5214   19.4206 C   0  0  0  0  0  0  0  0  0  0  0  0
   14.3190  -45.4392   13.9815 O   0  0  0  0  0  0  0  0  0  0  0  0
   12.8695  -50.1805   17.9377 C   0  0  0  0  0  0  0  0  0  0  0  0
   15.0244  -44.9559   11.0935 O   0  0  0  0  0  0  0  0  0  0  0  0
    9.3711  -42.4599   10.7229 O   0  0  0  0  0  0  0  0  0  0  0  0
  1  2  1  0
  1  3  2  0
  1 33  1  0
  2  4  2  0
  2 35  1  0
  3 11  1  0
  4 14  1  0
  5  8  2  0
  5 15  1  0
  6  9  2  0
  6 13  1  0
  7 10  1  0
  7 13  2  0
  8 16  1  0
  9 18  1  0
 10 18  2  0
 11 14  2  0
 11 19  1  0
 12 15  2  0
 12 17  1  0
 12 20  1  0
 13 24  1  0
 14 25  1  0
 15 26  1  0
 16 17  2  0
 17 36  1  0
 18 37  1  0
 19 29  1  0
 19 32  2  0
 20 31  1  0
 20 34  2  0
 21 28  1  0
 21 33  2  0
 22 36  1  0
 23 37  1  0
 24 29  1  0
 25 30  1  0
 26 30  1  0
 30 27  1  6
 28 35  2  0
M  CHG  2  30   1  31  -1
M  END
$$$$
