6T88 - prepared_ligand2
     RDKit          3D

 18 18  0  0  1  0  0  0  0  0999 V2000
  -13.1935  -52.0077   -8.4738 O   0  0  0  0  0  0  0  0  0  0  0  0
  -12.4596  -51.3089   -7.7442 C   0  0  0  0  0  0  0  0  0  0  0  0
  -11.8236  -50.3023   -8.1263 O   0  0  0  0  0  0  0  0  0  0  0  0
  -12.3101  -51.7178   -6.2726 C   0  0  0  0  0  0  0  0  0  0  0  0
  -10.9129  -52.3234   -5.9799 C   0  0  0  0  0  0  0  0  0  0  0  0
  -10.9712  -53.8148   -5.7437 C   0  0  0  0  0  0  0  0  0  0  0  0
  -10.7048  -54.5690   -4.6056 C   0  0  0  0  0  0  0  0  0  0  0  0
  -10.9883  -55.8893   -4.8862 N   0  0  0  0  0  0  0  0  0  0  0  0
  -11.3959  -55.9929   -6.1878 C   0  0  0  0  0  0  0  0  0  0  0  0
  -11.3747  -54.7225   -6.7146 N   0  0  0  0  0  0  0  0  0  0  0  0
  -13.1143  -52.3904   -5.9638 H   0  0  0  0  0  0  0  0  0  0  0  0
  -12.4484  -50.8274   -5.6612 H   0  0  0  0  0  0  0  0  0  0  0  0
  -10.5241  -51.8500   -5.0808 H   0  0  0  0  0  0  0  0  0  0  0  0
  -10.1737  -52.0813   -6.7437 H   0  0  0  0  0  0  0  0  0  0  0  0
  -10.3644  -54.2858   -3.6215 H   0  0  0  0  0  0  0  0  0  0  0  0
  -10.9064  -56.6627   -4.2314 H   0  0  0  0  0  0  0  0  0  0  0  0
  -11.6889  -56.9037   -6.6852 H   0  0  0  0  0  0  0  0  0  0  0  0
  -11.6318  -54.4824   -7.6633 H   0  0  0  0  0  0  0  0  0  0  0  0
  1  2  2  0
  2  3  1  0
  2  4  1  0
  4  5  1  0
  4 11  1  0
  4 12  1  0
  5  6  1  0
  5 13  1  0
  5 14  1  0
  6  7  2  0
  6 10  1  0
  7  8  1  0
  7 15  1  0
  8  9  2  0
  8 16  1  0
  9 10  1  0
  9 17  1  0
 10 18  1  0
M  CHG  2   3  -1   8   1
M  END
$$$$
