7A9E - prepared_ligand2
     RDKit          3D

 14 13  0  0  1  0  0  0  0  0999 V2000
   16.7783   31.1996   -6.8904 C   0  0  0  0  0  0  0  0  0  0  0  0
   19.0362   30.1956   -4.6419 C   0  0  0  0  0  0  0  0  0  0  0  0
   19.1087   29.0099   -7.0918 O   0  0  0  0  0  0  0  0  0  0  0  0
   16.6092   29.7874   -6.3199 C   0  0  0  0  0  0  0  0  0  0  0  0
   18.0081   27.7460   -5.1908 O   0  0  0  0  0  0  0  0  0  0  0  0
   18.2735   29.0084   -5.8859 S   0  0  0  0  0  0  0  0  0  0  0  0
   15.8314   31.5794   -7.2731 H   0  0  0  0  0  0  0  0  0  0  0  0
   17.1264   31.8958   -6.1294 H   0  0  0  0  0  0  0  0  0  0  0  0
   17.4938   31.2139   -7.7096 H   0  0  0  0  0  0  0  0  0  0  0  0
   18.3403   30.3413   -3.8167 H   0  0  0  0  0  0  0  0  0  0  0  0
   19.9664   29.7630   -4.2765 H   0  0  0  0  0  0  0  0  0  0  0  0
   19.2392   31.1458   -5.1341 H   0  0  0  0  0  0  0  0  0  0  0  0
   16.1441   29.1308   -7.0516 H   0  0  0  0  0  0  0  0  0  0  0  0
   15.9966   29.8004   -5.4199 H   0  0  0  0  0  0  0  0  0  0  0  0
  1  4  1  0
  1  7  1  0
  1  8  1  0
  1  9  1  0
  2  6  1  0
  2 10  1  0
  2 11  1  0
  2 12  1  0
  3  6  2  0
  4  6  1  0
  4 13  1  0
  4 14  1  0
  5  6  2  0
M  END
$$$$
