7R3D - prepared_ligand2
     RDKit          3D

 57 60  0  0  1  0  0  0  0  0999 V2000
   19.6969   27.9815  -49.0733 N   0  0  0  0  0  0  0  0  0  0  0  0
   20.0698   27.5597  -50.2885 C   0  0  0  0  0  0  0  0  0  0  0  0
   19.6838   26.4649  -50.9563 N   0  0  0  0  0  0  0  0  0  0  0  0
   18.8001   25.7312  -50.2355 C   0  0  0  0  0  0  0  0  0  0  0  0
   18.3212   26.0437  -48.9749 C   0  0  0  0  0  0  0  0  0  0  0  0
   18.7943   27.2375  -48.3844 C   0  0  0  0  0  0  0  0  0  0  0  0
   18.3953   27.6927  -47.1325 N   0  0  0  0  0  0  0  0  0  0  0  0
   17.4771   25.0992  -48.5337 N   0  0  0  0  0  0  0  0  0  0  0  0
   17.4589   24.2072  -49.4937 C   0  0  0  0  0  0  0  0  0  0  0  0
   18.2028   24.5501  -50.5647 N   0  0  0  0  0  0  0  0  0  0  0  0
   18.4740   23.7526  -51.8200 C   0  0  1  0  0  0  0  0  0  0  0  0
   18.9542   22.3302  -51.6066 C   0  0  2  0  0  0  0  0  0  0  0  0
   20.3189   22.3620  -51.2601 O   0  0  0  0  0  0  0  0  0  0  0  0
   18.5805   21.7154  -52.9517 C   0  0  2  0  0  0  0  0  0  0  0  0
   19.5786   21.8729  -53.9483 O   0  0  0  0  0  0  0  0  0  0  0  0
   17.3536   23.6947  -52.6444 O   0  0  0  0  0  0  0  0  0  0  0  0
   17.2818   22.4462  -53.3229 C   0  0  2  0  0  0  0  0  0  0  0  0
   15.9881   21.7455  -52.8870 C   0  0  0  0  0  0  0  0  0  0  0  0
   16.0238   21.3917  -51.5106 O   0  0  0  0  0  0  0  0  0  0  0  0
   15.2505   19.9250  -51.0488 P   0  0  2  0  0  0  0  0  0  0  0  0
   15.5288   19.6709  -49.5851 O   0  0  0  0  0  0  0  0  0  0  0  0
   15.4940   18.8886  -52.1244 O   0  0  0  0  0  0  0  0  0  0  0  0
   13.6392   20.4418  -51.2036 O   0  0  0  0  0  0  0  0  0  0  0  0
   12.2645   20.8640  -50.2965 P   0  0  1  0  0  0  0  0  0  0  0  0
   12.6875   21.5004  -48.9950 O   0  0  0  0  0  0  0  0  0  0  0  0
   11.2675   21.4972  -51.2382 O   0  0  0  0  0  0  0  0  0  0  0  0
   11.7878   19.2449  -49.9814 O   0  0  0  0  0  0  0  0  0  0  0  0
   11.2664   18.5030  -51.0681 C   0  0  0  0  0  0  0  0  0  0  0  0
   10.4795   16.8457  -49.5413 O   0  0  0  0  0  0  0  0  0  0  0  0
    8.3397   16.1882  -49.0386 O   0  0  0  0  0  0  0  0  0  0  0  0
    9.4974   15.8813  -49.7055 C   0  0  1  0  0  0  0  0  0  0  0  0
    8.6274   14.5959  -51.5607 O   0  0  0  0  0  0  0  0  0  0  0  0
    9.2158   15.8356  -51.2040 C   0  0  2  0  0  0  0  0  0  0  0  0
   11.3916   14.9493  -52.0151 O   0  0  0  0  0  0  0  0  0  0  0  0
   10.6165   16.1084  -51.7615 C   0  0  2  0  0  0  0  0  0  0  0  0
   11.2719   17.0123  -50.7098 C   0  0  1  0  0  0  0  0  0  0  0  0
   20.7792   28.1922  -50.8018 H   0  0  0  0  0  0  0  0  0  0  0  0
   17.6082   27.2461  -46.6772 H   0  0  0  0  0  0  0  0  0  0  0  0
   18.7416   28.5835  -46.8082 H   0  0  0  0  0  0  0  0  0  0  0  0
   16.9039   23.2795  -49.4848 H   0  0  0  0  0  0  0  0  0  0  0  0
   19.2152   24.3122  -52.3964 H   0  0  0  0  0  0  0  0  0  0  0  0
   18.3683   21.8814  -50.8064 H   0  0  0  0  0  0  0  0  0  0  0  0
   20.5550   21.5269  -50.8379 H   0  0  0  0  0  0  0  0  0  0  0  0
   18.4049   20.6465  -52.8235 H   0  0  0  0  0  0  0  0  0  0  0  0
   20.4164   21.5794  -53.5807 H   0  0  0  0  0  0  0  0  0  0  0  0
   17.2237   22.6353  -54.3965 H   0  0  0  0  0  0  0  0  0  0  0  0
   15.8590   20.8796  -53.5342 H   0  0  0  0  0  0  0  0  0  0  0  0
   15.1353   22.3940  -53.0639 H   0  0  0  0  0  0  0  0  0  0  0  0
   11.8806   18.6516  -51.9573 H   0  0  0  0  0  0  0  0  0  0  0  0
   10.2577   18.8463  -51.3040 H   0  0  0  0  0  0  0  0  0  0  0  0
    8.4808   15.9844  -48.1095 H   0  0  0  0  0  0  0  0  0  0  0  0
    9.8999   14.9379  -49.3430 H   0  0  0  0  0  0  0  0  0  0  0  0
    9.2083   13.8988  -51.2458 H   0  0  0  0  0  0  0  0  0  0  0  0
    8.5617   16.6676  -51.4588 H   0  0  0  0  0  0  0  0  0  0  0  0
   11.6488   14.5562  -51.1714 H   0  0  0  0  0  0  0  0  0  0  0  0
   10.5200   16.6300  -52.7146 H   0  0  0  0  0  0  0  0  0  0  0  0
   12.2922   16.7040  -50.4852 H   0  0  0  0  0  0  0  0  0  0  0  0
  1  2  2  0
  1  6  1  0
  2  3  1  0
  2 37  1  0
  3  4  2  0
  4  5  1  0
  4 10  1  0
  5  6  2  0
  5  8  1  0
  6  7  1  0
  7 38  1  0
  7 39  1  0
  8  9  2  0
  9 10  1  0
  9 40  1  0
 10 11  1  0
 11 12  1  0
 11 16  1  0
 11 41  1  6
 12 13  1  0
 12 14  1  0
 12 42  1  1
 13 43  1  0
 14 15  1  0
 14 17  1  0
 14 44  1  1
 15 45  1  0
 16 17  1  0
 17 18  1  0
 17 46  1  6
 18 19  1  0
 18 47  1  0
 18 48  1  0
 19 20  1  0
 20 21  2  0
 20 22  1  6
 20 23  1  0
 23 24  1  0
 24 25  2  0
 24 26  1  6
 24 27  1  0
 27 28  1  0
 28 36  1  0
 28 49  1  0
 28 50  1  0
 29 31  1  0
 29 36  1  0
 30 31  1  0
 30 51  1  0
 31 33  1  0
 31 52  1  1
 32 33  1  0
 32 53  1  0
 33 35  1  0
 33 54  1  1
 34 35  1  0
 34 55  1  0
 35 36  1  0
 35 56  1  6
 36 57  1  1
M  CHG  2  22  -1  26  -1
M  END
$$$$
