3BGZ_ligand
     RDKit          3D

 24 27  0  0  1  0  0  0  0  0999 V2000
  -16.2217   34.8923    1.3848 O   0  0  0  0  0  0  0  0  0  0  0  0
  -19.4906   37.7585   -1.0883 C   0  0  0  0  0  0  0  0  0  0  0  0
  -22.3809   40.0060   -2.0692 C   0  0  0  0  0  0  0  0  0  0  0  0
  -16.6535   35.6417    2.2872 C   0  0  0  0  0  0  0  0  0  0  0  0
  -16.2330   35.5741    3.4674 O   0  0  0  0  0  0  0  0  0  0  0  0
  -17.6937   36.6821    1.9371 C   0  0  0  0  0  0  0  0  0  0  0  0
  -18.2523   36.8351    0.6444 C   0  0  0  0  0  0  0  0  0  0  0  0
  -18.0398   36.1514   -0.5324 N   0  0  0  0  0  0  0  0  0  0  0  0
  -18.7647   36.6728   -1.5740 C   0  0  0  0  0  0  0  0  0  0  0  0
  -18.6892   36.0679   -2.9339 C   0  0  0  0  0  0  0  0  0  0  0  0
  -19.8474   35.9206   -3.7012 C   0  0  0  0  0  0  0  0  0  0  0  0
  -19.7700   35.3776   -4.9791 C   0  0  0  0  0  0  0  0  0  0  0  0
  -18.5404   34.9693   -5.4870 C   0  0  0  0  0  0  0  0  0  0  0  0
  -17.3826   35.1055   -4.7265 C   0  0  0  0  0  0  0  0  0  0  0  0
  -17.4580   35.6549   -3.4500 C   0  0  0  0  0  0  0  0  0  0  0  0
  -20.3674   38.6830   -1.8671 C   0  0  0  0  0  0  0  0  0  0  0  0
  -21.5884   39.1199   -1.3441 C   0  0  0  0  0  0  0  0  0  0  0  0
  -21.9519   40.4552   -3.3149 C   0  0  0  0  0  0  0  0  0  0  0  0
  -20.7257   40.0474   -3.8333 C   0  0  0  0  0  0  0  0  0  0  0  0
  -19.9313   39.1669   -3.1054 C   0  0  0  0  0  0  0  0  0  0  0  0
  -19.2072   37.8492    0.3222 C   0  0  0  0  0  0  0  0  0  0  0  0
  -19.6357   38.7124    1.3400 C   0  0  0  0  0  0  0  0  0  0  0  0
  -19.0878   38.5868    2.6059 C   0  0  0  0  0  0  0  0  0  0  0  0
  -18.1440   37.6120    2.8894 C   0  0  0  0  0  0  0  0  0  0  0  0
  1  4  2  0
  2  9  2  0
  2 16  1  0
  2 21  1  0
  3 17  2  0
  3 18  1  0
  4  5  1  0
  4  6  1  0
  6  7  2  0
  6 24  1  0
  7  8  1  0
  7 21  1  0
  8  9  1  0
  9 10  1  0
 10 11  2  0
 10 15  1  0
 11 12  1  0
 12 13  2  0
 13 14  1  0
 14 15  2  0
 16 17  1  0
 16 20  2  0
 18 19  2  0
 19 20  1  0
 21 22  2  0
 22 23  1  0
 23 24  2  0
M  CHG  1   5  -1
M  END
$$$$
