7Q2B - prepared_ligand
     RDKit          3D

 28 29  0  0  1  0  0  0  0  0999 V2000
  -32.9079  -11.3211   10.6377 C   0  0  0  0  0  0  0  0  0  0  0  0
  -31.5257  -11.2803   10.4779 C   0  0  0  0  0  0  0  0  0  0  0  0
  -33.4775  -11.2569   11.9065 C   0  0  0  0  0  0  0  0  0  0  0  0
  -30.7064  -11.1548   11.5948 C   0  0  0  0  0  0  0  0  0  0  0  0
  -32.6564  -11.1543   13.0245 C   0  0  0  0  0  0  0  0  0  0  0  0
  -27.5338  -13.3816   14.6755 C   0  0  0  0  0  0  0  0  0  0  0  0
  -28.3305  -13.6342   15.9440 C   0  0  0  0  0  0  0  0  0  0  0  0
  -30.3778  -10.9493   14.1016 C   0  0  0  0  0  0  0  0  0  0  0  0
  -29.7818  -12.2928   14.5301 C   0  0  0  0  0  0  0  0  0  0  0  0
  -31.2683  -11.0896   12.8722 C   0  0  0  0  0  0  0  0  0  0  0  0
  -28.6008  -12.8590   13.7066 N   0  0  0  0  0  0  0  0  0  0  0  0
  -29.2724  -12.4355   15.9724 N   0  0  0  0  0  0  0  0  0  0  0  0
  -33.5390  -11.4066    9.7677 H   0  0  0  0  0  0  0  0  0  0  0  0
  -31.0901  -11.3376    9.4913 H   0  0  0  0  0  0  0  0  0  0  0  0
  -34.5484  -11.2907   12.0277 H   0  0  0  0  0  0  0  0  0  0  0  0
  -29.6390  -11.1089   11.4598 H   0  0  0  0  0  0  0  0  0  0  0  0
  -33.1034  -11.0998   14.0028 H   0  0  0  0  0  0  0  0  0  0  0  0
  -27.0590  -14.2633   14.2401 H   0  0  0  0  0  0  0  0  0  0  0  0
  -26.8073  -12.5722   14.7832 H   0  0  0  0  0  0  0  0  0  0  0  0
  -27.7760  -13.6519   16.8785 H   0  0  0  0  0  0  0  0  0  0  0  0
  -28.9709  -14.5153   15.8851 H   0  0  0  0  0  0  0  0  0  0  0  0
  -29.5838  -10.2267   13.9204 H   0  0  0  0  0  0  0  0  0  0  0  0
  -30.9668  -10.5172   14.9137 H   0  0  0  0  0  0  0  0  0  0  0  0
  -30.5522  -13.0603   14.4818 H   0  0  0  0  0  0  0  0  0  0  0  0
  -28.9347  -13.5924   13.0949 H   0  0  0  0  0  0  0  0  0  0  0  0
  -28.2073  -12.1470   13.1004 H   0  0  0  0  0  0  0  0  0  0  0  0
  -28.7633  -11.6050   16.2506 H   0  0  0  0  0  0  0  0  0  0  0  0
  -30.0238  -12.5450   16.6451 H   0  0  0  0  0  0  0  0  0  0  0  0
  1  2  2  0
  1  3  1  0
  1 13  1  0
  2  4  1  0
  2 14  1  0
  3  5  2  0
  3 15  1  0
  4 10  2  0
  4 16  1  0
  5 10  1  0
  5 17  1  0
  6  7  1  0
  6 11  1  0
  6 18  1  0
  6 19  1  0
  7 12  1  0
  7 20  1  0
  7 21  1  0
  8  9  1  0
  8 10  1  0
  8 22  1  0
  8 23  1  0
  9 11  1  0
  9 12  1  0
  9 24  1  0
 11 25  1  0
 11 26  1  0
 12 27  1  0
 12 28  1  0
M  CHG  2  11   1  12   1
M  END
$$$$
