4TMN_ligand
     RDKit          3D

 36 37  0  0  1  0  0  0  0  0999 V2000
   33.5712   43.0168   -8.6783 C   0  0  0  0  0  0  0  0  0  0  0  0
   32.6366   43.4736   -8.0179 O   0  0  0  0  0  0  0  0  0  0  0  0
   33.9009   43.4045   -9.9213 O   0  0  0  0  0  0  0  0  0  0  0  0
   33.1226   44.3555  -10.6457 C   0  0  0  0  0  0  0  0  0  0  0  0
   32.7875   43.8631  -12.0498 C   0  0  0  0  0  0  0  0  0  0  0  0
   33.0938   42.5648  -12.4810 C   0  0  0  0  0  0  0  0  0  0  0  0
   32.7720   42.1637  -13.7746 C   0  0  0  0  0  0  0  0  0  0  0  0
   32.1396   43.0550  -14.6361 C   0  0  0  0  0  0  0  0  0  0  0  0
   31.8251   44.3429  -14.2136 C   0  0  0  0  0  0  0  0  0  0  0  0
   32.1491   44.7470  -12.9211 C   0  0  0  0  0  0  0  0  0  0  0  0
   34.4784   42.0550   -8.2629 N   0  0  0  0  0  0  0  0  0  0  0  0
   34.5094   41.5001   -6.9050 C   0  0  2  0  0  0  0  0  0  0  0  0
   35.5749   42.6621   -5.8935 P   0  0  1  0  0  0  0  0  0  0  0  0
   36.9622   42.5972   -6.4611 O   0  0  0  0  0  0  0  0  0  0  0  0
   34.8927   44.0019   -5.8225 O   0  0  0  0  0  0  0  0  0  0  0  0
   35.0597   40.0563   -6.8856 C   0  0  0  0  0  0  0  0  0  0  0  0
   34.1947   39.0653   -7.6507 C   0  0  0  0  0  0  0  0  0  0  0  0
   33.1918   38.3585   -6.9824 C   0  0  0  0  0  0  0  0  0  0  0  0
   34.3940   38.8757   -9.0210 C   0  0  0  0  0  0  0  0  0  0  0  0
   32.3703   37.4848   -7.6887 C   0  0  0  0  0  0  0  0  0  0  0  0
   33.5764   37.9962   -9.7253 C   0  0  0  0  0  0  0  0  0  0  0  0
   32.5655   37.3084   -9.0568 C   0  0  0  0  0  0  0  0  0  0  0  0
   35.5892   41.9318   -4.2750 N   0  0  0  0  0  0  0  0  0  0  0  0
   36.6439   42.3025   -3.3314 C   0  0  2  0  0  0  0  0  0  0  0  0
   37.8671   41.3938   -3.5951 C   0  0  0  0  0  0  0  0  0  0  0  0
   38.9283   41.9227   -3.9178 O   0  0  0  0  0  0  0  0  0  0  0  0
   36.1768   42.2713   -1.8547 C   0  0  0  0  0  0  0  0  0  0  0  0
   37.1979   42.8739   -0.8609 C   0  0  0  0  0  0  0  0  0  0  0  0
   37.3860   44.3949   -1.0639 C   0  0  0  0  0  0  0  0  0  0  0  0
   36.8460   42.5009    0.5907 C   0  0  0  0  0  0  0  0  0  0  0  0
   37.7206   40.0689   -3.4182 N   0  0  0  0  0  0  0  0  0  0  0  0
   38.7873   39.0592   -3.5448 C   0  0  2  0  0  0  0  0  0  0  0  0
   38.7475   38.2647   -4.9057 C   0  0  0  0  0  0  0  0  0  0  0  0
   37.6425   38.1724   -5.4943 O   0  0  0  0  0  0  0  0  0  0  0  0
   38.6783   38.0982   -2.3422 C   0  0  0  0  0  0  0  0  0  0  0  0
   39.8461   37.7610   -5.2333 O   0  0  0  0  0  0  0  0  0  0  0  0
  1  2  2  0
  1  3  1  0
  1 11  1  0
  3  4  1  0
  4  5  1  0
  5  6  2  0
  5 10  1  0
  6  7  1  0
  7  8  2  0
  8  9  1  0
  9 10  2  0
 11 12  1  0
 12 13  1  0
 12 16  1  6
 13 14  2  0
 13 15  1  1
 13 23  1  0
 16 17  1  0
 17 18  2  0
 17 19  1  0
 18 20  1  0
 19 21  2  0
 20 22  2  0
 21 22  1  0
 23 24  1  0
 24 25  1  0
 24 27  1  1
 25 26  2  0
 25 31  1  0
 27 28  1  0
 28 29  1  0
 28 30  1  0
 31 32  1  0
 32 33  1  0
 32 35  1  1
 33 34  2  0
 33 36  1  0
M  CHG  2  15  -1  36  -1
M  END
$$$$
