4EOR_ligand
     RDKit          3D

 28 31  0  0  1  0  0  0  0  0999 V2000
  -32.6553   17.9291   28.8758 C   0  0  0  0  0  0  0  0  0  0  0  0
  -33.2647   13.6007   28.5517 C   0  0  0  0  0  0  0  0  0  0  0  0
  -33.4884   17.2305   32.8469 C   0  0  0  0  0  0  0  0  0  0  0  0
  -34.3169   16.8731   34.0903 C   0  0  0  0  0  0  0  0  0  0  0  0
  -35.7553   16.4390   33.7200 C   0  0  0  0  0  0  0  0  0  0  0  0
  -36.5557   16.0478   34.9745 C   0  0  0  0  0  0  0  0  0  0  0  0
  -36.5990   17.2072   35.9925 C   0  0  0  0  0  0  0  0  0  0  0  0
  -35.1886   17.7435   36.3224 C   0  0  0  0  0  0  0  0  0  0  0  0
  -34.3933   18.0848   35.0497 C   0  0  0  0  0  0  0  0  0  0  0  0
  -32.1523   22.7275   29.7224 C   0  0  0  0  0  0  0  0  0  0  0  0
  -33.2361   22.7920   30.6015 C   0  0  0  0  0  0  0  0  0  0  0  0
  -34.0833   21.6984   30.7615 C   0  0  0  0  0  0  0  0  0  0  0  0
  -33.8361   20.5312   30.0520 C   0  0  0  0  0  0  0  0  0  0  0  0
  -33.8245   23.8158   33.1501 N   0  0  0  0  0  0  0  0  0  0  0  0
  -32.9034   17.6981   30.1910 N   0  0  0  0  0  0  0  0  0  0  0  0
  -33.1738   16.4294   30.5872 C   0  0  0  0  0  0  0  0  0  0  0  0
  -33.4778   16.1515   31.9067 O   0  0  0  0  0  0  0  0  0  0  0  0
  -33.1653   15.3848   29.6591 C   0  0  0  0  0  0  0  0  0  0  0  0
  -33.4025   14.0424   29.7758 N   0  0  0  0  0  0  0  0  0  0  0  0
  -32.9415   14.5737   27.6313 N   0  0  0  0  0  0  0  0  0  0  0  0
  -32.8651   15.7540   28.3250 C   0  0  0  0  0  0  0  0  0  0  0  0
  -32.5935   16.9925   27.8874 N   0  0  0  0  0  0  0  0  0  0  0  0
  -32.4350   19.2588   28.4966 N   0  0  0  0  0  0  0  0  0  0  0  0
  -32.7361   20.4442   29.1904 C   0  0  0  0  0  0  0  0  0  0  0  0
  -31.9131   21.5561   29.0092 C   0  0  0  0  0  0  0  0  0  0  0  0
  -33.5982   24.2977   31.4823 S   0  0  0  0  0  0  0  0  0  0  0  0
  -34.8899   24.7730   30.9802 O   0  0  0  0  0  0  0  0  0  0  0  0
  -32.4077   25.1507   31.4226 O   0  0  0  0  0  0  0  0  0  0  0  0
  1 15  2  0
  1 22  1  0
  1 23  1  0
  2 19  2  0
  2 20  1  0
  3  4  1  0
  3 17  1  0
  4  5  1  0
  4  9  1  0
  5  6  1  0
  6  7  1  0
  7  8  1  0
  8  9  1  0
 10 11  2  0
 10 25  1  0
 11 12  1  0
 11 26  1  0
 12 13  2  0
 13 24  1  0
 14 26  1  0
 15 16  1  0
 16 17  1  0
 16 18  2  0
 18 19  1  0
 18 21  1  0
 20 21  1  0
 21 22  2  0
 23 24  1  0
 24 25  2  0
 26 27  2  0
 26 28  2  0
M  END
$$$$
