4DE1_ligand
     RDKit          3D

 23 26  0  0  1  0  0  0  0  0999 V2000
   24.6577   88.8547   -8.3210 O   0  0  0  0  0  0  0  0  0  0  0  0
   24.8790   89.4293   -7.2518 C   0  0  0  0  0  0  0  0  0  0  0  0
   24.0359   89.0703   -6.0480 C   0  0  0  0  0  0  0  0  0  0  0  0
   22.9350   88.2192   -6.2301 C   0  0  0  0  0  0  0  0  0  0  0  0
   22.1989   87.7890   -5.1226 C   0  0  0  0  0  0  0  0  0  0  0  0
   21.0909   86.9196   -4.8990 C   0  0  0  0  0  0  0  0  0  0  0  0
   20.7905   86.8500   -3.6299 N   0  0  0  0  0  0  0  0  0  0  0  0
   21.6571   87.6486   -2.9830 N   0  0  0  0  0  0  0  0  0  0  0  0
   22.5568   88.2496   -3.8381 C   0  0  0  0  0  0  0  0  0  0  0  0
   23.6220   89.1293   -3.6304 C   0  0  0  0  0  0  0  0  0  0  0  0
   24.3457   89.5231   -4.7575 C   0  0  0  0  0  0  0  0  0  0  0  0
   25.8582   90.3527   -7.1020 N   0  0  0  0  0  0  0  0  0  0  0  0
   26.7424   90.7576   -8.1197 C   0  0  0  0  0  0  0  0  0  0  0  0
   28.0818   90.9839   -7.7900 C   0  0  0  0  0  0  0  0  0  0  0  0
   26.3306   90.9146   -9.4508 C   0  0  0  0  0  0  0  0  0  0  0  0
   27.2612   91.1931  -10.4412 C   0  0  0  0  0  0  0  0  0  0  0  0
   28.5992   91.3642  -10.1152 C   0  0  0  0  0  0  0  0  0  0  0  0
   29.0331   91.2694   -8.7860 C   0  0  0  0  0  0  0  0  0  0  0  0
   30.4895   91.4560   -8.4596 C   0  0  0  0  0  0  0  0  0  0  0  0
   30.9328   91.7222   -7.2557 N   0  0  0  0  0  0  0  0  0  0  0  0
   32.2927   91.8536   -7.3799 N   0  0  0  0  0  0  0  0  0  0  0  0
   32.6122   91.6226   -8.6858 N   0  0  0  0  0  0  0  0  0  0  0  0
   31.4454   91.3778   -9.3558 N   0  0  0  0  0  0  0  0  0  0  0  0
  1  2  2  0
  2  3  1  0
  2 12  1  0
  3  4  2  0
  3 11  1  0
  4  5  1  0
  5  6  1  0
  5  9  2  0
  6  7  2  0
  7  8  1  0
  8  9  1  0
  9 10  1  0
 10 11  2  0
 12 13  1  0
 13 14  2  0
 13 15  1  0
 14 18  1  0
 15 16  2  0
 16 17  1  0
 17 18  2  0
 18 19  1  0
 19 20  1  0
 19 23  2  0
 20 21  1  0
 21 22  2  0
 22 23  1  0
M  CHG  1  20  -1
M  END
$$$$
