8SLG - prepared_ligand
     RDKit          3D

 44 46  0  0  1  0  0  0  0  0999 V2000
  -39.0600   40.5065   29.1597 C   0  0  0  0  0  0  0  0  0  0  0  0
  -36.9737   39.0996   29.5749 N   0  0  0  0  0  0  0  0  0  0  0  0
  -39.0944   39.9950   28.0346 O   0  0  0  0  0  0  0  0  0  0  0  0
  -40.8662   42.1745   28.6420 S   0  0  0  0  0  0  0  0  0  0  0  0
  -42.1885   45.0611   20.1925 N   0  0  0  0  0  0  0  0  0  0  0  0
  -41.2645   45.9265   20.6313 C   0  0  0  0  0  0  0  0  0  0  0  0
  -40.6327   45.9614   21.8155 N   0  0  0  0  0  0  0  0  0  0  0  0
  -41.0389   44.9552   22.6283 C   0  0  0  0  0  0  0  0  0  0  0  0
  -41.9904   43.9993   22.3169 C   0  0  0  0  0  0  0  0  0  0  0  0
  -42.5793   44.0668   21.0338 C   0  0  0  0  0  0  0  0  0  0  0  0
  -43.5389   43.1616   20.5900 N   0  0  0  0  0  0  0  0  0  0  0  0
  -42.1820   43.1546   23.3415 N   0  0  0  0  0  0  0  0  0  0  0  0
  -41.3609   43.5813   24.2682 C   0  0  0  0  0  0  0  0  0  0  0  0
  -40.6264   44.6507   23.8963 N   0  0  0  0  0  0  0  0  0  0  0  0
  -38.0260   40.0303   30.1899 C   0  0  0  0  0  0  0  0  0  0  0  0
  -39.6182   45.4322   24.7163 C   0  0  1  0  0  0  0  0  0  0  0  0
  -41.8173   41.2531   28.0120 O   0  0  0  0  0  0  0  0  0  0  0  0
  -40.2448   46.4307   25.7021 C   0  0  2  0  0  0  0  0  0  0  0  0
  -39.4951   47.6326   25.7159 O   0  0  0  0  0  0  0  0  0  0  0  0
  -41.4384   43.3790   29.2475 O   0  0  0  0  0  0  0  0  0  0  0  0
  -40.1945   45.6440   27.0025 C   0  0  2  0  0  0  0  0  0  0  0  0
  -40.2641   46.4506   28.1622 O   0  0  0  0  0  0  0  0  0  0  0  0
  -39.8236   41.4775   29.5855 N   0  0  0  0  0  0  0  0  0  0  0  0
  -38.8864   44.8743   26.8733 C   0  0  2  0  0  0  0  0  0  0  0  0
  -38.8591   44.5424   25.4912 O   0  0  0  0  0  0  0  0  0  0  0  0
  -38.7894   43.5998   27.7229 C   0  0  0  0  0  0  0  0  0  0  0  0
  -39.8719   42.7260   27.4083 O   0  0  0  0  0  0  0  0  0  0  0  0
  -36.2496   38.9007   30.2541 H   0  0  0  0  0  0  0  0  0  0  0  0
  -37.3966   38.2323   29.2667 H   0  0  0  0  0  0  0  0  0  0  0  0
  -36.5328   39.5604   28.7864 H   0  0  0  0  0  0  0  0  0  0  0  0
  -40.9862   46.7019   19.9324 H   0  0  0  0  0  0  0  0  0  0  0  0
  -43.6997   42.3215   21.1264 H   0  0  0  0  0  0  0  0  0  0  0  0
  -43.7968   43.1875   19.6129 H   0  0  0  0  0  0  0  0  0  0  0  0
  -41.2420   43.1473   25.2503 H   0  0  0  0  0  0  0  0  0  0  0  0
  -38.4779   39.4716   31.0093 H   0  0  0  0  0  0  0  0  0  0  0  0
  -37.4430   40.8639   30.5800 H   0  0  0  0  0  0  0  0  0  0  0  0
  -38.9442   45.9195   24.0104 H   0  0  0  0  0  0  0  0  0  0  0  0
  -41.2765   46.6367   25.4246 H   0  0  0  0  0  0  0  0  0  0  0  0
  -39.8277   48.1924   26.4236 H   0  0  0  0  0  0  0  0  0  0  0  0
  -41.0379   44.9510   27.0076 H   0  0  0  0  0  0  0  0  0  0  0  0
  -40.7001   45.9505   28.8613 H   0  0  0  0  0  0  0  0  0  0  0  0
  -38.0383   45.5281   27.0800 H   0  0  0  0  0  0  0  0  0  0  0  0
  -38.7755   43.8728   28.7793 H   0  0  0  0  0  0  0  0  0  0  0  0
  -37.8460   43.0880   27.5351 H   0  0  0  0  0  0  0  0  0  0  0  0
  1  3  2  0
  1 15  1  0
  1 23  1  0
  2 15  1  0
  2 28  1  0
  2 29  1  0
  2 30  1  0
  4 17  2  0
  4 20  2  0
  4 23  1  0
  4 27  1  0
  5  6  2  0
  5 10  1  0
  6  7  1  0
  6 31  1  0
  7  8  2  0
  8  9  1  0
  8 14  1  0
  9 10  2  0
  9 12  1  0
 10 11  1  0
 11 32  1  0
 11 33  1  0
 12 13  2  0
 13 14  1  0
 13 34  1  0
 14 16  1  0
 15 35  1  0
 15 36  1  0
 16 18  1  0
 16 25  1  0
 16 37  1  6
 18 19  1  0
 18 21  1  0
 18 38  1  6
 19 39  1  0
 21 22  1  0
 21 24  1  0
 21 40  1  6
 22 41  1  0
 24 25  1  0
 24 26  1  0
 24 42  1  1
 26 27  1  0
 26 43  1  0
 26 44  1  0
M  CHG  2   2   1  23  -1
M  END
$$$$
