5DWR_ligand
     RDKit          3D

 32 35  0  0  1  0  0  0  0  0999 V2000
  -40.8296   -1.7173    4.8301 C   0  0  2  0  0  0  0  0  0  0  0  0
  -40.6588   -2.8554    5.8561 C   0  0  0  0  0  0  0  0  0  0  0  0
  -40.7228   -4.2391    5.1722 C   0  0  1  0  0  0  0  0  0  0  0  0
  -39.1524   -2.8719    0.5414 C   0  0  0  0  0  0  0  0  0  0  0  0
  -41.1871   -2.4910   -0.8503 C   0  0  0  0  0  0  0  0  0  0  0  0
  -42.6623   -2.1883   -0.7049 C   0  0  0  0  0  0  0  0  0  0  0  0
  -43.5327   -2.3372   -1.7933 C   0  0  0  0  0  0  0  0  0  0  0  0
  -44.9021   -2.2022   -1.5761 C   0  0  0  0  0  0  0  0  0  0  0  0
  -45.3841   -1.9102   -0.3042 C   0  0  0  0  0  0  0  0  0  0  0  0
  -44.4709   -1.7501    0.7478 C   0  0  0  0  0  0  0  0  0  0  0  0
  -44.8888   -1.5655    2.1726 C   0  0  0  0  0  0  0  0  0  0  0  0
  -45.8885   -0.6429    2.5262 C   0  0  0  0  0  0  0  0  0  0  0  0
  -46.2988   -0.5046    3.8518 C   0  0  0  0  0  0  0  0  0  0  0  0
  -45.7252   -1.2841    4.8518 C   0  0  0  0  0  0  0  0  0  0  0  0
  -44.7262   -2.1939    4.5253 C   0  0  0  0  0  0  0  0  0  0  0  0
  -44.3071   -2.3290    3.2030 C   0  0  0  0  0  0  0  0  0  0  0  0
  -43.3216   -3.2147    2.9360 F   0  0  0  0  0  0  0  0  0  0  0  0
  -46.4572    0.1490    1.5892 F   0  0  0  0  0  0  0  0  0  0  0  0
  -46.7199   -1.8796   -0.0992 F   0  0  0  0  0  0  0  0  0  0  0  0
  -43.1317   -1.8654    0.5338 N   0  0  0  0  0  0  0  0  0  0  0  0
  -40.7242   -2.8070   -1.9453 O   0  0  0  0  0  0  0  0  0  0  0  0
  -40.4690   -2.4484    0.2945 N   0  0  0  0  0  0  0  0  0  0  0  0
  -38.1636   -2.8985   -0.4543 C   0  0  0  0  0  0  0  0  0  0  0  0
  -36.8803   -3.2524   -0.2139 N   0  0  0  0  0  0  0  0  0  0  0  0
  -36.5462   -3.5828    1.0536 C   0  0  0  0  0  0  0  0  0  0  0  0
  -37.4543   -3.5864    2.1065 C   0  0  0  0  0  0  0  0  0  0  0  0
  -38.7872   -3.2348    1.8594 C   0  0  0  0  0  0  0  0  0  0  0  0
  -39.7942   -3.1990    3.0234 C   0  0  1  0  0  0  0  0  0  0  0  0
  -39.6675   -4.3677    4.0425 C   0  0  0  0  0  0  0  0  0  0  0  0
  -40.4835   -5.3204    6.2335 N   0  0  0  0  0  0  0  0  0  0  0  0
  -39.7466   -1.8305    3.7378 C   0  0  0  0  0  0  0  0  0  0  0  0
  -40.7818   -0.3412    5.5000 C   0  0  0  0  0  0  0  0  0  0  0  0
  1  2  1  0
  1 31  1  0
  1 32  1  1
  2  3  1  0
  3 29  1  0
  3 30  1  1
  4 22  1  0
  4 23  2  0
  4 27  1  0
  5  6  1  0
  5 21  2  0
  5 22  1  0
  6  7  2  0
  6 20  1  0
  7  8  1  0
  8  9  2  0
  9 10  1  0
  9 19  1  0
 10 11  1  0
 10 20  2  0
 11 12  2  0
 11 16  1  0
 12 13  1  0
 12 18  1  0
 13 14  2  0
 14 15  1  0
 15 16  2  0
 16 17  1  0
 23 24  1  0
 24 25  2  0
 25 26  1  0
 26 27  2  0
 28 27  1  6
 28 29  1  0
 28 31  1  0
M  CHG  1  30   1
M  END
$$$$
