3NW9_ligand
     RDKit          3D

 38 42  0  0  1  0  0  0  0  0999 V2000
   -4.7588   21.4266   14.0295 C   0  0  2  0  0  0  0  0  0  0  0  0
   -5.0767   20.8222   15.4042 C   0  0  2  0  0  0  0  0  0  0  0  0
   -5.7855   21.7302   16.2266 O   0  0  0  0  0  0  0  0  0  0  0  0
   -3.6695   20.4142   15.8476 C   0  0  2  0  0  0  0  0  0  0  0  0
   -2.9023   21.4286   16.4655 O   0  0  0  0  0  0  0  0  0  0  0  0
   -3.0301   19.9449   14.5413 C   0  0  2  0  0  0  0  0  0  0  0  0
   -8.7777   21.7503    9.3143 C   0  0  0  0  0  0  0  0  0  0  0  0
   -7.2559   20.2142   11.6414 N   0  0  0  0  0  0  0  0  0  0  0  0
   -6.4410   20.0967   12.6575 C   0  0  0  0  0  0  0  0  0  0  0  0
   -5.7493   21.2421   12.9967 N   0  0  0  0  0  0  0  0  0  0  0  0
   -6.1043   22.1624   12.0290 C   0  0  0  0  0  0  0  0  0  0  0  0
   -7.0777   21.5060   11.2388 C   0  0  0  0  0  0  0  0  0  0  0  0
   -3.5471   20.8762   13.6020 O   0  0  0  0  0  0  0  0  0  0  0  0
   -3.4263   18.5195   14.2023 C   0  0  0  0  0  0  0  0  0  0  0  0
   -2.5536   17.5620   13.8741 C   0  0  0  0  0  0  0  0  0  0  0  0
   -2.9284   16.1213   13.6334 C   0  0  0  0  0  0  0  0  0  0  0  0
   -1.7631   15.2614   13.7575 N   0  0  0  0  0  0  0  0  0  0  0  0
   -1.6231   14.2807   14.6583 C   0  0  0  0  0  0  0  0  0  0  0  0
   -2.5329   13.9583   15.4271 O   0  0  0  0  0  0  0  0  0  0  0  0
   -0.2833   13.5730   14.7154 C   0  0  0  0  0  0  0  0  0  0  0  0
   -0.2526   12.3329   15.3679 C   0  0  0  0  0  0  0  0  0  0  0  0
    0.9254   11.6096   15.5387 C   0  0  0  0  0  0  0  0  0  0  0  0
    2.1063   12.1365   15.0155 C   0  0  0  0  0  0  0  0  0  0  0  0
    0.9067   10.3299   16.2979 C   0  0  0  0  0  0  0  0  0  0  0  0
    0.2161   10.2464   17.5143 C   0  0  0  0  0  0  0  0  0  0  0  0
    0.2066    9.0630   18.2460 C   0  0  0  0  0  0  0  0  0  0  0  0
    1.5716    9.1979   15.8163 C   0  0  0  0  0  0  0  0  0  0  0  0
    1.5613    8.0103   16.5447 C   0  0  0  0  0  0  0  0  0  0  0  0
    0.8826    7.9493   17.7590 C   0  0  0  0  0  0  0  0  0  0  0  0
    0.8784    6.8004   18.4706 F   0  0  0  0  0  0  0  0  0  0  0  0
    0.9313   14.0877   14.1925 C   0  0  0  0  0  0  0  0  0  0  0  0
    1.0330   15.2961   13.5386 O   0  0  0  0  0  0  0  0  0  0  0  0
    2.1190   13.3686   14.3635 C   0  0  0  0  0  0  0  0  0  0  0  0
    3.3146   13.8856   13.9144 O   0  0  0  0  0  0  0  0  0  0  0  0
   -7.6777   22.2648   10.2231 C   0  0  0  0  0  0  0  0  0  0  0  0
   -7.2919   23.5543   10.0277 N   0  0  0  0  0  0  0  0  0  0  0  0
   -6.3250   24.0571   10.8375 C   0  0  0  0  0  0  0  0  0  0  0  0
   -5.6912   23.4257   11.8616 N   0  0  0  0  0  0  0  0  0  0  0  0
  1  2  1  0
  1 10  1  6
  1 13  1  0
  2  3  1  1
  2  4  1  0
  4  5  1  6
  4  6  1  0
  6 13  1  0
  6 14  1  6
  7 35  1  0
  8  9  2  0
  8 12  1  0
  9 10  1  0
 10 11  1  0
 11 12  2  0
 11 38  1  0
 12 35  1  0
 14 15  2  0
 15 16  1  0
 16 17  1  0
 17 18  1  0
 18 19  2  0
 18 20  1  0
 20 21  2  0
 20 31  1  0
 21 22  1  0
 22 23  2  0
 22 24  1  0
 23 33  1  0
 24 25  2  0
 24 27  1  0
 25 26  1  0
 26 29  2  0
 27 28  2  0
 28 29  1  0
 29 30  1  0
 31 32  1  0
 31 33  2  0
 33 34  1  0
 35 36  2  0
 36 37  1  0
 37 38  2  0
M  END
$$$$
