1BZC_ligand
     RDKit          3D

 29 30  0  0  1  0  0  0  0  0999 V2000
  -20.6597   58.4451   12.0452 P   0  0  0  0  0  0  0  0  0  0  0  0
  -20.7050   57.0314   11.4431 O   0  0  0  0  0  0  0  0  0  0  0  0
  -21.5978   59.4561   11.3576 O   0  0  0  0  0  0  0  0  0  0  0  0
  -19.2462   58.9859   12.3129 O   0  0  0  0  0  0  0  0  0  0  0  0
  -21.3904   58.2507   13.8022 C   0  0  0  0  0  0  0  0  0  0  0  0
  -21.5272   59.5087   14.2353 F   0  0  0  0  0  0  0  0  0  0  0  0
  -22.6117   57.7526   13.6068 F   0  0  0  0  0  0  0  0  0  0  0  0
  -20.9278   56.0852   15.0611 C   0  0  0  0  0  0  0  0  0  0  0  0
  -20.6089   57.4268   14.8200 C   0  0  0  0  0  0  0  0  0  0  0  0
  -19.6018   58.0432   15.5642 C   0  0  0  0  0  0  0  0  0  0  0  0
  -18.9444   57.3622   16.5798 C   0  0  0  0  0  0  0  0  0  0  0  0
  -18.6899   55.3363   17.9596 C   0  0  0  0  0  0  0  0  0  0  0  0
  -19.0438   54.0204   18.2783 C   0  0  0  0  0  0  0  0  0  0  0  0
  -20.0048   53.3761   17.4882 C   0  0  0  0  0  0  0  0  0  0  0  0
  -20.6125   54.0227   16.4116 C   0  0  0  0  0  0  0  0  0  0  0  0
  -20.2827   55.3653   16.1007 C   0  0  0  0  0  0  0  0  0  0  0  0
  -19.2913   56.0253   16.8830 C   0  0  0  0  0  0  0  0  0  0  0  0
  -18.3984   53.3586   19.4792 C   0  0  0  0  0  0  0  0  0  0  0  0
  -17.8857   54.0595   20.3561 O   0  0  0  0  0  0  0  0  0  0  0  0
  -18.3821   52.0081   19.5382 N   0  0  0  0  0  0  0  0  0  0  0  0
  -17.7473   51.2388   20.6266 C   0  0  2  0  0  0  0  0  0  0  0  0
  -16.2091   51.3815   20.6279 C   0  0  0  0  0  0  0  0  0  0  0  0
  -15.6592   52.0688   21.6313 N   0  0  0  0  0  0  0  0  0  0  0  0
  -15.5390   50.8352   19.7553 O   0  0  0  0  0  0  0  0  0  0  0  0
  -18.1411   49.7426   20.5612 C   0  0  0  0  0  0  0  0  0  0  0  0
  -19.6112   49.4463   20.9271 C   0  0  0  0  0  0  0  0  0  0  0  0
  -19.9708   47.9494   20.9902 C   0  0  0  0  0  0  0  0  0  0  0  0
  -21.1653   47.6779   21.2426 O   0  0  0  0  0  0  0  0  0  0  0  0
  -19.0745   47.0943   20.8016 O   0  0  0  0  0  0  0  0  0  0  0  0
  1  2  1  0
  1  3  1  0
  1  4  2  0
  1  5  1  0
  5  6  1  0
  5  7  1  0
  5  9  1  0
  8  9  2  0
  8 16  1  0
  9 10  1  0
 10 11  2  0
 11 17  1  0
 12 13  1  0
 12 17  2  0
 13 14  2  0
 13 18  1  0
 14 15  1  0
 15 16  2  0
 16 17  1  0
 18 19  2  0
 18 20  1  0
 20 21  1  0
 21 22  1  0
 21 25  1  6
 22 23  1  0
 22 24  2  0
 25 26  1  0
 26 27  1  0
 27 28  2  0
 27 29  1  0
M  CHG  3   2  -1   3  -1  29  -1
M  END
$$$$
