7MWU - prepared_ligand3
     RDKit          3D

 14 14  0  0  1  0  0  0  0  0999 V2000
   10.8701   50.2796   50.6754 C   0  0  0  0  0  0  0  0  0  0  0  0
   10.2209   49.7268   49.4046 C   0  0  0  0  0  0  0  0  0  0  0  0
   11.3924   48.7421   49.2322 C   0  0  0  0  0  0  0  0  0  0  0  0
   11.9835   49.2328   50.5716 C   0  0  0  0  0  0  0  0  0  0  0  0
   12.2329   48.9367   47.9509 C   0  0  0  0  0  0  0  0  0  0  0  0
   13.4523   49.1949   48.0438 O   0  0  0  0  0  0  0  0  0  0  0  0
   11.6399   48.7973   46.8598 O   0  0  0  0  0  0  0  0  0  0  0  0
   10.2609   50.1971   51.5740 H   0  0  0  0  0  0  0  0  0  0  0  0
   11.2139   51.3050   50.5559 H   0  0  0  0  0  0  0  0  0  0  0  0
   10.1007   50.4641   48.6096 H   0  0  0  0  0  0  0  0  0  0  0  0
    9.2666   49.2350   49.5760 H   0  0  0  0  0  0  0  0  0  0  0  0
   11.0952   47.6939   49.2292 H   0  0  0  0  0  0  0  0  0  0  0  0
   11.9604   48.4776   51.3574 H   0  0  0  0  0  0  0  0  0  0  0  0
   12.9850   49.6574   50.5262 H   0  0  0  0  0  0  0  0  0  0  0  0
  1  2  1  0
  1  4  1  0
  1  8  1  0
  1  9  1  0
  2  3  1  0
  2 10  1  0
  2 11  1  0
  3  4  1  0
  3  5  1  0
  3 12  1  0
  4 13  1  0
  4 14  1  0
  5  6  1  0
  5  7  2  0
M  CHG  1   6  -1
M  END
$$$$
