4F3C_ligand
     RDKit          3D

 23 25  0  0  1  0  0  0  0  0999 V2000
  -11.7327  -10.7708   11.3107 C   0  0  0  0  0  0  0  0  0  0  0  0
   -9.1678  -11.3257   11.7714 C   0  0  0  0  0  0  0  0  0  0  0  0
   -9.8247  -10.2716   12.4665 C   0  0  0  0  0  0  0  0  0  0  0  0
   -7.7021  -10.3497   13.1613 C   0  0  0  0  0  0  0  0  0  0  0  0
  -11.5217   -8.0972   17.8038 O   0  0  0  0  0  0  0  0  0  0  0  0
  -11.6664   -9.0911   16.8066 C   0  0  2  0  0  0  0  0  0  0  0  0
  -10.6615  -10.2403   16.9864 C   0  0  1  0  0  0  0  0  0  0  0  0
  -11.1578  -11.5696   16.3788 C   0  0  0  0  0  0  0  0  0  0  0  0
  -12.5483  -12.3687   17.2343 S   0  0  0  0  0  0  0  0  0  0  0  0
  -11.6927  -13.0553   18.6815 C   0  0  0  0  0  0  0  0  0  0  0  0
  -12.5762  -13.9524   19.5623 C   0  0  0  0  0  0  0  0  0  0  0  0
  -11.8273  -14.6016   20.7394 C   0  0  0  0  0  0  0  0  0  0  0  0
  -11.5738  -13.6339   21.9032 C   0  0  0  0  0  0  0  0  0  0  0  0
   -9.3467   -9.7521   16.3420 C   0  0  0  0  0  0  0  0  0  0  0  0
   -9.7387   -8.5389   15.4748 N   0  0  2  0  0  0  0  0  0  0  0  0
  -11.2703   -8.5141   15.4473 C   0  0  0  0  0  0  0  0  0  0  0  0
   -9.0337   -8.3335   14.1180 C   0  0  0  0  0  0  0  0  0  0  0  0
   -7.8806  -11.3647   12.2549 N   0  0  0  0  0  0  0  0  0  0  0  0
   -9.8797  -12.0695   10.8212 C   0  0  0  0  0  0  0  0  0  0  0  0
   -9.3329  -13.1179   10.0937 N   0  0  0  0  0  0  0  0  0  0  0  0
  -11.1186  -10.0116   12.2510 N   0  0  0  0  0  0  0  0  0  0  0  0
   -8.8595   -9.5995   13.2975 C   0  0  0  0  0  0  0  0  0  0  0  0
  -11.1811  -11.7733   10.5881 N   0  0  0  0  0  0  0  0  0  0  0  0
  1 21  2  0
  1 23  1  0
  2  3  2  0
  2 18  1  0
  2 19  1  0
  3 21  1  0
  3 22  1  0
  4 18  1  0
  4 22  2  0
  6  5  1  1
  6  7  1  0
  6 16  1  0
  7  8  1  6
  7 14  1  0
  8  9  1  0
  9 10  1  0
 10 11  1  0
 11 12  1  0
 12 13  1  0
 14 15  1  0
 15 16  1  0
 15 17  1  6
 17 22  1  0
 19 20  1  0
 19 23  2  0
M  CHG  1  15   1
M  END
$$$$
