7Q19 - prepared_ligand
     RDKit          3D

 43 45  0  0  1  0  0  0  0  0999 V2000
   -3.1940   44.9937   21.9865 C   0  0  0  0  0  0  0  0  0  0  0  0
   -3.4842   45.3910   20.5307 N   0  0  0  0  0  0  0  0  0  0  0  0
   -4.2838   46.6970   20.4040 C   0  0  0  0  0  0  0  0  0  0  0  0
   -4.6445   46.9507   18.9333 C   0  0  0  0  0  0  0  0  0  0  0  0
   -5.5788   48.1735   18.8073 C   0  0  0  0  0  0  0  0  0  0  0  0
   -5.9355   48.5712   17.4285 N   0  0  0  0  0  0  0  0  0  0  0  0
   -7.1930   49.1973   17.2218 C   0  0  0  0  0  0  0  0  0  0  0  0
   -7.8405   49.8382   18.3011 C   0  0  0  0  0  0  0  0  0  0  0  0
   -9.0367   50.5322   18.1538 C   0  0  0  0  0  0  0  0  0  0  0  0
   -9.6173   50.6373   16.9025 C   0  0  0  0  0  0  0  0  0  0  0  0
   -9.0116   50.0203   15.8154 C   0  0  0  0  0  0  0  0  0  0  0  0
   -7.8338   49.2737   15.9500 C   0  0  0  0  0  0  0  0  0  0  0  0
   -7.3408   48.5794   14.6751 C   0  0  0  0  0  0  0  0  0  0  0  0
   -6.2082   47.5522   14.7690 C   0  0  0  0  0  0  0  0  0  0  0  0
   -4.9131   48.1808   15.2400 C   0  0  0  0  0  0  0  0  0  0  0  0
   -4.8526   48.7204   16.5381 C   0  0  0  0  0  0  0  0  0  0  0  0
   -3.8117   48.2956   14.3841 C   0  0  0  0  0  0  0  0  0  0  0  0
   -2.6592   48.9647   14.7861 C   0  0  0  0  0  0  0  0  0  0  0  0
   -2.5965   49.5215   16.0577 C   0  0  0  0  0  0  0  0  0  0  0  0
   -3.6805   49.3943   16.9215 C   0  0  0  0  0  0  0  0  0  0  0  0
   -2.6420   44.0540   21.9455 H   0  0  0  0  0  0  0  0  0  0  0  0
   -2.5994   45.7881   22.4369 H   0  0  0  0  0  0  0  0  0  0  0  0
   -4.1531   44.8654   22.4908 H   0  0  0  0  0  0  0  0  0  0  0  0
   -4.0042   44.6393   20.0965 H   0  0  0  0  0  0  0  0  0  0  0  0
   -2.6118   45.4836   20.0293 H   0  0  0  0  0  0  0  0  0  0  0  0
   -3.6481   47.4803   20.8167 H   0  0  0  0  0  0  0  0  0  0  0  0
   -5.1674   46.5742   21.0304 H   0  0  0  0  0  0  0  0  0  0  0  0
   -5.1487   46.0729   18.5303 H   0  0  0  0  0  0  0  0  0  0  0  0
   -3.7285   47.0817   18.3575 H   0  0  0  0  0  0  0  0  0  0  0  0
   -5.1520   49.0185   19.3408 H   0  0  0  0  0  0  0  0  0  0  0  0
   -6.4814   47.9161   19.3636 H   0  0  0  0  0  0  0  0  0  0  0  0
   -7.4144   49.8362   19.2903 H   0  0  0  0  0  0  0  0  0  0  0  0
   -9.5022   50.9993   19.0076 H   0  0  0  0  0  0  0  0  0  0  0  0
  -10.5369   51.1906   16.7793 H   0  0  0  0  0  0  0  0  0  0  0  0
   -9.4713   50.1075   14.8431 H   0  0  0  0  0  0  0  0  0  0  0  0
   -7.0411   49.3573   13.9706 H   0  0  0  0  0  0  0  0  0  0  0  0
   -8.1969   48.0769   14.2214 H   0  0  0  0  0  0  0  0  0  0  0  0
   -6.0565   47.1044   13.7863 H   0  0  0  0  0  0  0  0  0  0  0  0
   -6.4767   46.7203   15.4220 H   0  0  0  0  0  0  0  0  0  0  0  0
   -3.8535   47.8723   13.3926 H   0  0  0  0  0  0  0  0  0  0  0  0
   -1.8208   49.0551   14.1113 H   0  0  0  0  0  0  0  0  0  0  0  0
   -1.7097   50.0492   16.3757 H   0  0  0  0  0  0  0  0  0  0  0  0
   -3.6076   49.8394   17.9004 H   0  0  0  0  0  0  0  0  0  0  0  0
  1  2  1  0
  1 21  1  0
  1 22  1  0
  1 23  1  0
  2  3  1  0
  2 24  1  0
  2 25  1  0
  3  4  1  0
  3 26  1  0
  3 27  1  0
  4  5  1  0
  4 28  1  0
  4 29  1  0
  5  6  1  0
  5 30  1  0
  5 31  1  0
  6  7  1  0
  6 16  1  0
  7  8  2  0
  7 12  1  0
  8  9  1  0
  8 32  1  0
  9 10  2  0
  9 33  1  0
 10 11  1  0
 10 34  1  0
 11 12  2  0
 11 35  1  0
 12 13  1  0
 13 14  1  0
 13 36  1  0
 13 37  1  0
 14 15  1  0
 14 38  1  0
 14 39  1  0
 15 16  2  0
 15 17  1  0
 16 20  1  0
 17 18  2  0
 17 40  1  0
 18 19  1  0
 18 41  1  0
 19 20  2  0
 19 42  1  0
 20 43  1  0
M  CHG  1   2   1
M  END
$$$$
