7UMW - prepared_ligand3
     RDKit          3D

 70 74  0  0  1  0  0  0  0  0999 V2000
  -45.2689   52.5219  -26.9366 P   0  0  1  0  0  0  0  0  0  0  0  0
  -46.4747   53.2514  -27.4827 O   0  0  0  0  0  0  0  0  0  0  0  0
  -43.8897   53.1381  -26.8504 O   0  0  0  0  0  0  0  0  0  0  0  0
  -45.7200   51.8524  -25.4111 O   0  0  0  0  0  0  0  0  0  0  0  0
  -44.7058   51.4830  -24.4902 C   0  0  0  0  0  0  0  0  0  0  0  0
  -45.0100   52.2258  -23.1838 C   0  0  1  0  0  0  0  0  0  0  0  0
  -44.0330   51.9376  -22.1943 O   0  0  0  0  0  0  0  0  0  0  0  0
  -45.0113   53.7678  -23.2704 C   0  0  1  0  0  0  0  0  0  0  0  0
  -46.3038   54.2962  -23.0393 O   0  0  0  0  0  0  0  0  0  0  0  0
  -43.9926   54.2266  -22.2186 C   0  0  1  0  0  0  0  0  0  0  0  0
  -44.2969   55.3969  -21.4745 O   0  0  0  0  0  0  0  0  0  0  0  0
  -44.0104   53.0106  -21.3123 C   0  0  2  0  0  0  0  0  0  0  0  0
  -42.8632   52.9003  -20.3413 N   0  0  0  0  0  0  0  0  0  0  0  0
  -41.5530   52.7294  -20.6016 C   0  0  0  0  0  0  0  0  0  0  0  0
  -40.7994   52.7475  -19.5298 N   0  0  0  0  0  0  0  0  0  0  0  0
  -41.6578   52.9895  -18.5249 C   0  0  0  0  0  0  0  0  0  0  0  0
  -41.4599   53.1841  -17.1382 C   0  0  0  0  0  0  0  0  0  0  0  0
  -40.2095   53.1486  -16.5319 N   0  0  0  0  0  0  0  0  0  0  0  0
  -42.5453   53.4489  -16.3616 N   0  0  0  0  0  0  0  0  0  0  0  0
  -43.7461   53.4930  -16.9500 C   0  0  0  0  0  0  0  0  0  0  0  0
  -44.0577   53.3393  -18.2438 N   0  0  0  0  0  0  0  0  0  0  0  0
  -42.9550   53.0916  -18.9941 C   0  0  0  0  0  0  0  0  0  0  0  0
  -45.1496   51.0280  -27.7357 O   0  0  0  0  0  0  0  0  0  0  0  0
  -46.0785   49.6276  -27.9745 P   0  0  2  0  0  0  0  0  0  0  0  0
  -45.5132   48.8642  -29.1437 O   0  0  0  0  0  0  0  0  0  0  0  0
  -47.5347   50.0167  -27.8780 O   0  0  0  0  0  0  0  0  0  0  0  0
  -45.5629   48.8363  -26.5416 O   0  0  0  0  0  0  0  0  0  0  0  0
  -46.5344   48.2027  -25.7337 C   0  0  0  0  0  0  0  0  0  0  0  0
  -46.0042   46.8606  -25.2009 C   0  0  1  0  0  0  0  0  0  0  0  0
  -46.0443   45.9317  -26.2794 O   0  0  0  0  0  0  0  0  0  0  0  0
  -44.5309   46.8655  -24.7629 C   0  0  1  0  0  0  0  0  0  0  0  0
  -44.3179   46.0112  -23.6478 O   0  0  0  0  0  0  0  0  0  0  0  0
  -43.7881   46.4031  -26.0236 C   0  0  1  0  0  0  0  0  0  0  0  0
  -42.5091   45.8459  -25.7980 O   0  0  0  0  0  0  0  0  0  0  0  0
  -44.7971   45.3549  -26.5018 C   0  0  2  0  0  0  0  0  0  0  0  0
  -44.7241   44.8212  -27.9308 N   0  0  0  0  0  0  0  0  0  0  0  0
  -44.5676   45.6698  -28.9788 C   0  0  0  0  0  0  0  0  0  0  0  0
  -44.6410   45.1979  -30.3025 C   0  0  0  0  0  0  0  0  0  0  0  0
  -44.4467   46.1061  -31.4911 C   0  0  0  0  0  0  0  0  0  0  0  0
  -44.0707   45.6640  -32.5721 O   0  0  0  0  0  0  0  0  0  0  0  0
  -44.7067   47.4025  -31.3405 N   0  0  0  0  0  0  0  0  0  0  0  0
  -44.8717   43.8292  -30.5076 C   0  0  0  0  0  0  0  0  0  0  0  0
  -45.0226   42.9797  -29.4156 C   0  0  0  0  0  0  0  0  0  0  0  0
  -44.9639   43.5035  -28.1257 C   0  0  0  0  0  0  0  0  0  0  0  0
  -43.6929   51.6966  -24.8330 H   0  0  0  0  0  0  0  0  0  0  0  0
  -44.7588   50.4067  -24.3252 H   0  0  0  0  0  0  0  0  0  0  0  0
  -45.9651   51.8607  -22.8035 H   0  0  0  0  0  0  0  0  0  0  0  0
  -44.6745   54.1050  -24.2516 H   0  0  0  0  0  0  0  0  0  0  0  0
  -46.9157   53.9088  -23.6737 H   0  0  0  0  0  0  0  0  0  0  0  0
  -43.0013   54.3028  -22.6666 H   0  0  0  0  0  0  0  0  0  0  0  0
  -43.5174   55.6510  -20.9689 H   0  0  0  0  0  0  0  0  0  0  0  0
  -44.9311   52.9736  -20.7259 H   0  0  0  0  0  0  0  0  0  0  0  0
  -41.2112   52.5931  -21.6172 H   0  0  0  0  0  0  0  0  0  0  0  0
  -40.1538   53.4740  -15.5744 H   0  0  0  0  0  0  0  0  0  0  0  0
  -39.3851   53.1514  -17.1170 H   0  0  0  0  0  0  0  0  0  0  0  0
  -44.5799   53.6794  -16.2917 H   0  0  0  0  0  0  0  0  0  0  0  0
  -47.4772   48.0376  -26.2555 H   0  0  0  0  0  0  0  0  0  0  0  0
  -46.7365   48.8827  -24.9126 H   0  0  0  0  0  0  0  0  0  0  0  0
  -46.6676   46.5089  -24.4104 H   0  0  0  0  0  0  0  0  0  0  0  0
  -44.2060   47.8693  -24.4835 H   0  0  0  0  0  0  0  0  0  0  0  0
  -45.0199   46.1358  -23.0017 H   0  0  0  0  0  0  0  0  0  0  0  0
  -43.7240   47.2141  -26.7478 H   0  0  0  0  0  0  0  0  0  0  0  0
  -42.0626   45.7206  -26.6438 H   0  0  0  0  0  0  0  0  0  0  0  0
  -44.7321   44.4939  -25.8298 H   0  0  0  0  0  0  0  0  0  0  0  0
  -44.4032   46.7047  -28.7277 H   0  0  0  0  0  0  0  0  0  0  0  0
  -44.6046   48.0214  -32.1337 H   0  0  0  0  0  0  0  0  0  0  0  0
  -45.0356   47.7844  -30.4579 H   0  0  0  0  0  0  0  0  0  0  0  0
  -44.9295   43.4154  -31.5052 H   0  0  0  0  0  0  0  0  0  0  0  0
  -45.1998   41.9259  -29.5664 H   0  0  0  0  0  0  0  0  0  0  0  0
  -45.1159   42.8987  -27.2442 H   0  0  0  0  0  0  0  0  0  0  0  0
  1  2  2  0
  1  3  1  1
  1  4  1  0
  1 23  1  0
  4  5  1  0
  5  6  1  0
  5 45  1  0
  5 46  1  0
  6  7  1  0
  6  8  1  0
  6 47  1  1
  7 12  1  0
  8  9  1  0
  8 10  1  0
  8 48  1  6
  9 49  1  0
 10 11  1  0
 10 12  1  0
 10 50  1  6
 11 51  1  0
 12 13  1  0
 12 52  1  1
 13 14  1  0
 13 22  1  0
 14 15  2  0
 14 53  1  0
 15 16  1  0
 16 17  1  0
 16 22  2  0
 17 18  1  0
 17 19  2  0
 18 54  1  0
 18 55  1  0
 19 20  1  0
 20 21  2  0
 20 56  1  0
 21 22  1  0
 23 24  1  0
 24 25  2  0
 24 26  1  6
 24 27  1  0
 27 28  1  0
 28 29  1  0
 28 57  1  0
 28 58  1  0
 29 30  1  0
 29 31  1  0
 29 59  1  1
 30 35  1  0
 31 32  1  0
 31 33  1  0
 31 60  1  1
 32 61  1  0
 33 34  1  0
 33 35  1  0
 33 62  1  6
 34 63  1  0
 35 36  1  0
 35 64  1  1
 36 37  2  0
 36 44  1  0
 37 38  1  0
 37 65  1  0
 38 39  1  0
 38 42  2  0
 39 40  2  0
 39 41  1  0
 41 66  1  0
 41 67  1  0
 42 43  1  0
 42 68  1  0
 43 44  2  0
 43 69  1  0
 44 70  1  0
M  CHG  3   3  -1  26  -1  36   1
M  END
$$$$
