1XOQ - prepared_ligand2
     RDKit          3D

 40 42  0  0  1  0  0  0  0  0999 V2000
   23.1522   21.4527   95.2851 O   0  0  0  0  0  0  0  0  0  0  0  0
   25.6743   16.3084   99.7266 C   0  0  0  0  0  0  0  0  0  0  0  0
   26.8870   16.8296   98.9694 C   0  0  0  0  0  0  0  0  0  0  0  0
   26.0379   17.7693   99.7699 C   0  0  0  0  0  0  0  0  0  0  0  0
   22.2058   21.7264   96.0294 C   0  0  0  0  0  0  0  0  0  0  0  0
   22.3216   21.5130   97.5183 C   0  0  0  0  0  0  0  0  0  0  0  0
   21.5579   22.2365   98.4420 C   0  0  0  0  0  0  0  0  0  0  0  0
   21.7393   22.0492   99.8099 C   0  0  0  0  0  0  0  0  0  0  0  0
   22.6834   21.1280  100.2893 C   0  0  0  0  0  0  0  0  0  0  0  0
   22.9533   20.9199  101.6300 O   0  0  0  0  0  0  0  0  0  0  0  0
   22.4715   21.8290  102.6104 C   0  0  0  0  0  0  0  0  0  0  0  0
   21.1434   21.8297  102.7153 F   0  0  0  0  0  0  0  0  0  0  0  0
   22.9486   23.0573  102.4175 F   0  0  0  0  0  0  0  0  0  0  0  0
   23.4158   20.3613   99.3763 C   0  0  0  0  0  0  0  0  0  0  0  0
   24.3028   19.4363   99.8932 O   0  0  0  0  0  0  0  0  0  0  0  0
   25.1829   18.7698   98.9996 C   0  0  0  0  0  0  0  0  0  0  0  0
   23.2331   20.5714   98.0004 C   0  0  0  0  0  0  0  0  0  0  0  0
   21.0116   22.1566   95.5789 N   0  0  0  0  0  0  0  0  0  0  0  0
   20.7013   22.2211   94.2167 C   0  0  0  0  0  0  0  0  0  0  0  0
   20.8248   23.4288   93.5117 C   0  0  0  0  0  0  0  0  0  0  0  0
   21.3757   24.8859   94.2559 Cl  0  0  0  0  0  0  0  0  0  0  0  0
   20.5117   23.4360   92.1540 C   0  0  0  0  0  0  0  0  0  0  0  0
   20.1282   22.3254   91.4765 N   0  0  0  0  0  0  0  0  0  0  0  0
   20.0288   21.1629   92.1663 C   0  0  0  0  0  0  0  0  0  0  0  0
   20.2835   21.0659   93.5337 C   0  0  0  0  0  0  0  0  0  0  0  0
   20.1042   19.5377   94.3268 Cl  0  0  0  0  0  0  0  0  0  0  0  0
   25.8119   15.7112  100.6250 H   0  0  0  0  0  0  0  0  0  0  0  0
   24.7906   15.9990   99.1699 H   0  0  0  0  0  0  0  0  0  0  0  0
   26.8538   16.9552   97.8889 H   0  0  0  0  0  0  0  0  0  0  0  0
   27.8905   16.6065   99.3251 H   0  0  0  0  0  0  0  0  0  0  0  0
   26.5016   18.1923  100.6626 H   0  0  0  0  0  0  0  0  0  0  0  0
   20.8386   22.9706   98.1194 H   0  0  0  0  0  0  0  0  0  0  0  0
   21.1432   22.6428  100.4829 H   0  0  0  0  0  0  0  0  0  0  0  0
   22.8429   21.5036  103.5806 H   0  0  0  0  0  0  0  0  0  0  0  0
   24.6291   18.2470   98.2176 H   0  0  0  0  0  0  0  0  0  0  0  0
   25.8309   19.5002   98.5185 H   0  0  0  0  0  0  0  0  0  0  0  0
   23.8100   20.0089   97.2826 H   0  0  0  0  0  0  0  0  0  0  0  0
   20.2844   22.3886   96.2397 H   0  0  0  0  0  0  0  0  0  0  0  0
   20.6046   24.3433   91.5773 H   0  0  0  0  0  0  0  0  0  0  0  0
   19.7377   20.2919   91.5982 H   0  0  0  0  0  0  0  0  0  0  0  0
  1  5  2  0
  2  3  1  0
  2  4  1  0
  2 27  1  0
  2 28  1  0
  3  4  1  0
  3 29  1  0
  3 30  1  0
  4 16  1  0
  4 31  1  0
  5  6  1  0
  5 18  1  0
  6  7  2  0
  6 17  1  0
  7  8  1  0
  7 32  1  0
  8  9  2  0
  8 33  1  0
  9 10  1  0
  9 14  1  0
 10 11  1  0
 11 12  1  0
 11 13  1  0
 11 34  1  0
 14 15  1  0
 14 17  2  0
 15 16  1  0
 16 35  1  0
 16 36  1  0
 17 37  1  0
 18 19  1  0
 18 38  1  0
 19 20  2  0
 19 25  1  0
 20 21  1  0
 20 22  1  0
 22 23  2  0
 22 39  1  0
 23 24  1  0
 24 25  2  0
 24 40  1  0
 25 26  1  0
M  END
$$$$
