7DUA - prepared_ligand3
     RDKit          3D

 40 43  0  0  1  0  0  0  0  0999 V2000
   26.3275   13.0583  -25.3356 C   0  0  0  0  0  0  0  0  0  0  0  0
   27.7218   11.2311  -24.5578 C   0  0  0  0  0  0  0  0  0  0  0  0
   28.8838   11.8858  -24.1033 C   0  0  0  0  0  0  0  0  0  0  0  0
   29.7804   10.9002  -23.7499 C   0  0  0  0  0  0  0  0  0  0  0  0
   31.1659   10.9322  -23.1611 C   0  0  0  0  0  0  0  0  0  0  0  0
   23.8351   12.8309  -25.1105 C   0  0  0  0  0  0  0  0  0  0  0  0
   22.8963   16.3757  -27.6101 C   0  0  0  0  0  0  0  0  0  0  0  0
   24.9981   15.4620  -27.3541 C   0  0  0  0  0  0  0  0  0  0  0  0
   24.4680   14.4908  -26.4778 C   0  0  0  0  0  0  0  0  0  0  0  0
   20.5041   12.4661  -26.1463 C   0  0  0  0  0  0  0  0  0  0  0  0
   20.6241   14.0846  -24.1043 C   0  0  0  0  0  0  0  0  0  0  0  0
   27.2046   13.9186  -25.3894 O   0  0  0  0  0  0  0  0  0  0  0  0
   26.5176   11.7711  -24.9736 N   0  0  0  0  0  0  0  0  0  0  0  0
   29.1021    9.7433  -24.0200 N   0  0  0  0  0  0  0  0  0  0  0  0
   27.8633    9.9273  -24.4870 N   0  0  0  0  0  0  0  0  0  0  0  0
   24.9724   13.4056  -25.6692 C   0  0  0  0  0  0  0  0  0  0  0  0
   22.6914   13.5013  -25.4761 N   0  0  0  0  0  0  0  0  0  0  0  0
   23.0550   14.5488  -26.3007 C   0  0  0  0  0  0  0  0  0  0  0  0
   22.2427   15.4652  -26.8456 N   0  0  0  0  0  0  0  0  0  0  0  0
   24.2180   16.4245  -27.9006 N   0  0  0  0  0  0  0  0  0  0  0  0
   26.3366   15.4449  -27.7308 N   0  0  0  0  0  0  0  0  0  0  0  0
   21.3404   13.1530  -25.0523 C   0  0  0  0  0  0  0  0  0  0  0  0
   21.0877   12.7333  -23.6166 C   0  0  0  0  0  0  0  0  0  0  0  0
   29.0479   12.9487  -24.0131 H   0  0  0  0  0  0  0  0  0  0  0  0
   31.2193   10.3540  -22.2392 H   0  0  0  0  0  0  0  0  0  0  0  0
   31.9034   10.5183  -23.8447 H   0  0  0  0  0  0  0  0  0  0  0  0
   31.4808   11.9485  -22.9224 H   0  0  0  0  0  0  0  0  0  0  0  0
   23.7481   11.9985  -24.4274 H   0  0  0  0  0  0  0  0  0  0  0  0
   22.2906   17.1586  -28.0345 H   0  0  0  0  0  0  0  0  0  0  0  0
   20.9308   11.4978  -26.4083 H   0  0  0  0  0  0  0  0  0  0  0  0
   19.4759   12.2925  -25.8264 H   0  0  0  0  0  0  0  0  0  0  0  0
   20.4664   13.0702  -27.0532 H   0  0  0  0  0  0  0  0  0  0  0  0
   19.5571   14.2578  -24.2433 H   0  0  0  0  0  0  0  0  0  0  0  0
   21.1475   14.9645  -23.7336 H   0  0  0  0  0  0  0  0  0  0  0  0
   25.7464   11.1265  -25.0821 H   0  0  0  0  0  0  0  0  0  0  0  0
   29.4626    8.8192  -23.8161 H   0  0  0  0  0  0  0  0  0  0  0  0
   26.7000   16.1403  -28.3656 H   0  0  0  0  0  0  0  0  0  0  0  0
   26.9510   14.7699  -27.2942 H   0  0  0  0  0  0  0  0  0  0  0  0
   20.3456   11.9601  -23.4154 H   0  0  0  0  0  0  0  0  0  0  0  0
   21.9191   12.6990  -22.9112 H   0  0  0  0  0  0  0  0  0  0  0  0
  1 12  2  0
  1 13  1  0
  1 16  1  0
  2  3  1  0
  2 13  1  0
  2 15  2  0
  3  4  2  0
  3 24  1  0
  4  5  1  0
  4 14  1  0
  5 25  1  0
  5 26  1  0
  5 27  1  0
  6 16  2  0
  6 17  1  0
  6 28  1  0
  7 19  1  0
  7 20  2  0
  7 29  1  0
  8  9  2  0
  8 20  1  0
  8 21  1  0
  9 16  1  0
  9 18  1  0
 10 22  1  0
 10 30  1  0
 10 31  1  0
 10 32  1  0
 11 22  1  0
 11 23  1  0
 11 33  1  0
 11 34  1  0
 13 35  1  0
 14 15  1  0
 14 36  1  0
 17 18  1  0
 17 22  1  0
 18 19  2  0
 21 37  1  0
 21 38  1  0
 22 23  1  0
 23 39  1  0
 23 40  1  0
M  END
$$$$
