1UOU - prepared_ligand
     RDKit          3D

 28 29  0  0  1  0  0  0  0  0999 V2000
   -5.1086    4.6027   30.4559 Cl  0  0  0  0  0  0  0  0  0  0  0  0
   -3.7974    3.4095   30.4438 C   0  0  0  0  0  0  0  0  0  0  0  0
   -3.3739    2.7933   29.3117 C   0  0  0  0  0  0  0  0  0  0  0  0
   -3.9565    3.0643   27.9302 C   0  0  0  0  0  0  0  0  0  0  0  0
   -4.5419    1.8600   27.3116 N   0  0  0  0  0  0  0  0  0  0  0  0
   -5.6889    1.2104   27.9427 C   0  0  0  0  0  0  0  0  0  0  0  0
   -5.9820    0.0318   27.0335 C   0  0  0  0  0  0  0  0  0  0  0  0
   -5.2464    0.3003   25.7357 C   0  0  0  0  0  0  0  0  0  0  0  0
   -4.2321    1.3315   26.1133 C   0  0  0  0  0  0  0  0  0  0  0  0
   -3.2300    1.6920   25.3130 N   0  0  0  0  0  0  0  0  0  0  0  0
   -2.3088    1.9262   29.3319 N   0  0  0  0  0  0  0  0  0  0  0  0
   -1.6565    1.5802   30.4749 C   0  0  0  0  0  0  0  0  0  0  0  0
   -0.7667    0.7381   30.5120 O   0  0  0  0  0  0  0  0  0  0  0  0
   -2.1256    2.2140   31.5884 N   0  0  0  0  0  0  0  0  0  0  0  0
   -3.1490    3.1037   31.7115 C   0  0  0  0  0  0  0  0  0  0  0  0
   -3.4749    3.5662   32.7975 O   0  0  0  0  0  0  0  0  0  0  0  0
   -3.1886    3.4551   27.2763 H   0  0  0  0  0  0  0  0  0  0  0  0
   -4.7640    3.7912   27.9749 H   0  0  0  0  0  0  0  0  0  0  0  0
   -6.5098    1.9277   27.9696 H   0  0  0  0  0  0  0  0  0  0  0  0
   -5.4335    0.9075   28.9587 H   0  0  0  0  0  0  0  0  0  0  0  0
   -7.0510   -0.1305   26.8909 H   0  0  0  0  0  0  0  0  0  0  0  0
   -5.5817   -0.8759   27.4785 H   0  0  0  0  0  0  0  0  0  0  0  0
   -5.9012    0.7029   24.9601 H   0  0  0  0  0  0  0  0  0  0  0  0
   -4.7679   -0.6054   25.3621 H   0  0  0  0  0  0  0  0  0  0  0  0
   -3.1239    1.2464   24.4117 H   0  0  0  0  0  0  0  0  0  0  0  0
   -2.5730    2.4024   25.6084 H   0  0  0  0  0  0  0  0  0  0  0  0
   -1.9834    1.4851   28.4845 H   0  0  0  0  0  0  0  0  0  0  0  0
   -1.6708    1.9601   32.4559 H   0  0  0  0  0  0  0  0  0  0  0  0
  1  2  1  0
  2  3  2  0
  2 15  1  0
  3  4  1  0
  3 11  1  0
  4  5  1  0
  4 17  1  0
  4 18  1  0
  5  6  1  0
  5  9  2  0
  6  7  1  0
  6 19  1  0
  6 20  1  0
  7  8  1  0
  7 21  1  0
  7 22  1  0
  8  9  1  0
  8 23  1  0
  8 24  1  0
  9 10  1  0
 10 25  1  0
 10 26  1  0
 11 12  1  0
 11 27  1  0
 12 13  2  0
 12 14  1  0
 14 15  1  0
 14 28  1  0
 15 16  2  0
M  CHG  1   5   1
M  END
$$$$
