8ACL - prepared_ligand
     RDKit          3D

 51 54  0  0  1  0  0  0  0  0999 V2000
   11.8368    1.2611   19.5282 N   0  0  0  0  0  0  0  0  0  0  0  0
    8.9759   -0.2088   16.0062 N   0  0  0  0  0  0  0  0  0  0  0  0
    9.0424   -0.9990   27.2722 C   0  0  0  0  0  0  0  0  0  0  0  0
    7.7728   -1.1306   26.7426 C   0  0  0  0  0  0  0  0  0  0  0  0
   10.3577    0.3892   21.2447 C   0  0  1  0  0  0  0  0  0  0  0  0
   11.4645    0.0231   20.2222 C   0  0  0  0  0  0  0  0  0  0  0  0
   12.4105    2.2726   20.4228 C   0  0  0  0  0  0  0  0  0  0  0  0
   10.0394    1.7687   23.3738 C   0  0  0  0  0  0  0  0  0  0  0  0
    8.6249    2.4529   25.7097 C   0  0  0  0  0  0  0  0  0  0  0  0
   10.6824    2.3979   24.4472 C   0  0  0  0  0  0  0  0  0  0  0  0
   10.8011    0.5486   17.4046 C   0  0  0  0  0  0  0  0  0  0  0  0
   10.9948   -1.5220   16.1689 C   0  0  0  0  0  0  0  0  0  0  0  0
   11.5441   -0.5858   17.0466 C   0  0  0  0  0  0  0  0  0  0  0  0
   10.6368   -1.2716   23.0859 N   0  0  0  0  0  0  0  0  0  0  0  0
    9.9938   -0.9523   21.9463 C   0  0  0  0  0  0  0  0  0  0  0  0
    9.1220   -1.6697   21.4558 O   0  0  0  0  0  0  0  0  0  0  0  0
   10.3332   -2.3971   23.9650 C   0  0  0  0  0  0  0  0  0  0  0  0
    8.6640    1.5176   23.4870 C   0  0  0  0  0  0  0  0  0  0  0  0
    7.9533    1.8596   24.6380 C   0  0  0  0  0  0  0  0  0  0  0  0
    9.9849    2.7357   25.6039 C   0  0  0  0  0  0  0  0  0  0  0  0
   11.3664    1.6151   18.3022 C   0  0  0  0  0  0  0  0  0  0  0  0
    9.5239    0.6971   16.8532 C   0  0  0  0  0  0  0  0  0  0  0  0
    9.7127   -1.2939   15.6714 C   0  0  0  0  0  0  0  0  0  0  0  0
    9.5576   -1.9015   25.1679 C   0  0  0  0  0  0  0  0  0  0  0  0
   10.0356   -1.4418   26.3951 C   0  0  0  0  0  0  0  0  0  0  0  0
   11.3880    2.5943   21.5395 C   0  0  0  0  0  0  0  0  0  0  0  0
   10.7639    1.4414   22.2234 N   0  0  0  0  0  0  0  0  0  0  0  0
   11.3928    2.7739   17.8778 O   0  0  0  0  0  0  0  0  0  0  0  0
    7.8160   -1.8007   25.1501 S   0  0  0  0  0  0  0  0  0  0  0  0
    6.2523    1.5480   24.7087 Cl  0  0  0  0  0  0  0  0  0  0  0  0
    7.7995    2.8399   27.1736 Cl  0  0  0  0  0  0  0  0  0  0  0  0
    9.2468   -0.5971   28.2528 H   0  0  0  0  0  0  0  0  0  0  0  0
    6.8299   -0.8670   27.1979 H   0  0  0  0  0  0  0  0  0  0  0  0
    9.4513    0.7077   20.7241 H   0  0  0  0  0  0  0  0  0  0  0  0
   12.3458   -0.3346   20.7579 H   0  0  0  0  0  0  0  0  0  0  0  0
   11.1806   -0.7894   19.5537 H   0  0  0  0  0  0  0  0  0  0  0  0
   12.7431    3.1721   19.9018 H   0  0  0  0  0  0  0  0  0  0  0  0
   13.3016    1.8505   20.8883 H   0  0  0  0  0  0  0  0  0  0  0  0
   11.7382    2.6189   24.3983 H   0  0  0  0  0  0  0  0  0  0  0  0
   11.5474   -2.3999   15.8728 H   0  0  0  0  0  0  0  0  0  0  0  0
   12.5429   -0.7391   17.4302 H   0  0  0  0  0  0  0  0  0  0  0  0
   11.3698   -0.6502   23.4012 H   0  0  0  0  0  0  0  0  0  0  0  0
   11.2844   -2.8237   24.2845 H   0  0  0  0  0  0  0  0  0  0  0  0
    9.8163   -3.2023   23.4385 H   0  0  0  0  0  0  0  0  0  0  0  0
    8.1369    1.0472   22.6744 H   0  0  0  0  0  0  0  0  0  0  0  0
   10.5086    3.2199   26.4144 H   0  0  0  0  0  0  0  0  0  0  0  0
    8.9136    1.5598   17.0787 H   0  0  0  0  0  0  0  0  0  0  0  0
    9.2541   -1.9906   14.9868 H   0  0  0  0  0  0  0  0  0  0  0  0
   11.0871   -1.4091   26.6394 H   0  0  0  0  0  0  0  0  0  0  0  0
   10.5633    3.1239   21.0587 H   0  0  0  0  0  0  0  0  0  0  0  0
   11.8635    3.2674   22.2530 H   0  0  0  0  0  0  0  0  0  0  0  0
  1  6  1  0
  1  7  1  0
  1 21  1  0
  2 22  2  0
  2 23  1  0
  3  4  2  0
  3 25  1  0
  3 32  1  0
  4 29  1  0
  4 33  1  0
  5  6  1  0
  5 15  1  0
  5 27  1  0
  5 34  1  6
  6 35  1  0
  6 36  1  0
  7 26  1  0
  7 37  1  0
  7 38  1  0
  8 10  1  0
  8 18  2  0
  8 27  1  0
  9 19  2  0
  9 20  1  0
  9 31  1  0
 10 20  2  0
 10 39  1  0
 11 13  2  0
 11 21  1  0
 11 22  1  0
 12 13  1  0
 12 23  2  0
 12 40  1  0
 13 41  1  0
 14 15  1  0
 14 17  1  0
 14 42  1  0
 15 16  2  0
 17 24  1  0
 17 43  1  0
 17 44  1  0
 18 19  1  0
 18 45  1  0
 19 30  1  0
 20 46  1  0
 21 28  2  0
 22 47  1  0
 23 48  1  0
 24 25  2  0
 24 29  1  0
 25 49  1  0
 26 27  1  0
 26 50  1  0
 26 51  1  0
M  END
$$$$
