7YZU - prepared_ligand
     RDKit          3D

 29 29  0  0  1  0  0  0  0  0999 V2000
   11.9797  -20.4620  -18.6170 C   0  0  0  0  0  0  0  0  0  0  0  0
    9.8272  -21.4744  -19.6020 C   0  0  1  0  0  0  0  0  0  0  0  0
    9.0580  -22.7958  -19.7532 C   0  0  1  0  0  0  0  0  0  0  0  0
    8.8412  -23.4636  -18.3886 C   0  0  2  0  0  0  0  0  0  0  0  0
   12.0790  -24.9328  -17.4390 C   0  0  0  0  0  0  0  0  0  0  0  0
   10.1652  -23.5758  -17.6139 C   0  0  1  0  0  0  0  0  0  0  0  0
   11.1317  -21.7392  -18.8282 C   0  0  2  0  0  0  0  0  0  0  0  0
   10.9445  -24.5709  -18.2052 O   0  0  0  0  0  0  0  0  0  0  0  0
   10.8454  -22.3383  -17.5574 O   0  0  0  0  0  0  0  0  0  0  0  0
   13.8240  -20.8557  -18.6904 S   0  0  0  0  0  0  0  0  0  0  0  0
   14.0714  -21.6450  -17.4791 O   0  0  0  0  0  0  0  0  0  0  0  0
   14.4593  -19.5358  -18.6965 O   0  0  0  0  0  0  0  0  0  0  0  0
   13.9769  -21.6023  -19.9410 O   0  0  0  0  0  0  0  0  0  0  0  0
   10.0804  -20.8711  -20.8557 O   0  0  0  0  0  0  0  0  0  0  0  0
    7.8297  -22.6221  -20.4223 O   0  0  0  0  0  0  0  0  0  0  0  0
    8.1818  -24.7110  -18.5133 O   0  0  0  0  0  0  0  0  0  0  0  0
   11.7662  -19.9782  -17.6655 H   0  0  0  0  0  0  0  0  0  0  0  0
   11.8132  -19.7234  -19.4002 H   0  0  0  0  0  0  0  0  0  0  0  0
    9.2192  -20.7597  -19.0473 H   0  0  0  0  0  0  0  0  0  0  0  0
    9.6444  -23.4720  -20.3782 H   0  0  0  0  0  0  0  0  0  0  0  0
    8.1779  -22.8360  -17.7977 H   0  0  0  0  0  0  0  0  0  0  0  0
   12.6431  -25.7005  -17.9621 H   0  0  0  0  0  0  0  0  0  0  0  0
   12.7384  -24.0786  -17.2850 H   0  0  0  0  0  0  0  0  0  0  0  0
   11.7894  -25.3330  -16.4664 H   0  0  0  0  0  0  0  0  0  0  0  0
    9.9869  -23.8249  -16.5656 H   0  0  0  0  0  0  0  0  0  0  0  0
   11.7131  -22.4512  -19.4165 H   0  0  0  0  0  0  0  0  0  0  0  0
   10.2149  -21.5627  -21.5161 H   0  0  0  0  0  0  0  0  0  0  0  0
    7.8683  -23.1481  -21.2334 H   0  0  0  0  0  0  0  0  0  0  0  0
    8.0004  -25.0489  -17.6263 H   0  0  0  0  0  0  0  0  0  0  0  0
  1  7  1  0
  1 10  1  0
  1 17  1  0
  1 18  1  0
  2  3  1  0
  2  7  1  0
  2 14  1  0
  2 19  1  1
  3  4  1  0
  3 15  1  0
  3 20  1  6
  4  6  1  0
  4 16  1  0
  4 21  1  1
  5  8  1  0
  5 22  1  0
  5 23  1  0
  5 24  1  0
  6  8  1  0
  6  9  1  0
  6 25  1  1
  7  9  1  0
  7 26  1  6
 10 11  2  0
 10 12  2  0
 10 13  1  0
 14 27  1  0
 15 28  1  0
 16 29  1  0
M  CHG  1  13  -1
M  END
$$$$
