6XUM - prepared_ligand1
     RDKit          3D

 37 38  0  0  1  0  0  0  0  0999 V2000
   82.9181    8.4909   67.4492 N   0  0  0  0  0  0  0  0  0  0  0  0
   81.9051    7.5571   67.9440 C   0  0  0  0  0  0  0  0  0  0  0  0
   80.9012    7.0370   66.9115 C   0  0  0  0  0  0  0  0  0  0  0  0
   80.0035    6.0405   67.2972 C   0  0  0  0  0  0  0  0  0  0  0  0
   79.0633    5.5101   66.4029 C   0  0  0  0  0  0  0  0  0  0  0  0
   78.1479    4.4270   66.8317 N   0  0  0  0  0  0  0  0  0  0  0  0
   77.3818    3.9393   66.0064 O   0  0  0  0  0  0  0  0  0  0  0  0
   78.1970    4.0510   67.9991 O   0  0  0  0  0  0  0  0  0  0  0  0
   79.0323    6.0101   65.0937 C   0  0  0  0  0  0  0  0  0  0  0  0
   79.9326    6.9929   64.6875 C   0  0  0  0  0  0  0  0  0  0  0  0
   80.8699    7.4928   65.5894 C   0  0  0  0  0  0  0  0  0  0  0  0
   82.7893    9.8291   67.3815 C   0  0  0  0  0  0  0  0  0  0  0  0
   81.7909   10.4215   67.7944 O   0  0  0  0  0  0  0  0  0  0  0  0
   83.9033   10.5778   66.6770 C   0  0  0  0  0  0  0  0  0  0  0  0
   83.5836   11.7344   65.9518 C   0  0  0  0  0  0  0  0  0  0  0  0
   84.5453   12.3987   65.1940 C   0  0  0  0  0  0  0  0  0  0  0  0
   85.8493   11.9213   65.1562 C   0  0  0  0  0  0  0  0  0  0  0  0
   86.7861   12.5584   64.4171 F   0  0  0  0  0  0  0  0  0  0  0  0
   86.1951   10.8003   65.9006 C   0  0  0  0  0  0  0  0  0  0  0  0
   85.2426   10.1324   66.6902 C   0  0  0  0  0  0  0  0  0  0  0  0
   85.5818    9.0645   67.5068 O   0  0  0  0  0  0  0  0  0  0  0  0
   86.7004    8.2283   67.1903 C   0  0  0  0  0  0  0  0  0  0  0  0
   86.4803    7.4443   65.8824 C   0  0  0  0  0  0  0  0  0  0  0  0
   87.5179    7.0505   65.3127 O   0  0  0  0  0  0  0  0  0  0  0  0
   85.3191    7.2416   65.4598 O   0  0  0  0  0  0  0  0  0  0  0  0
   83.7545    8.0789   67.0553 H   0  0  0  0  0  0  0  0  0  0  0  0
   81.3433    7.9997   68.7692 H   0  0  0  0  0  0  0  0  0  0  0  0
   82.4247    6.7005   68.3735 H   0  0  0  0  0  0  0  0  0  0  0  0
   80.0571    5.6609   68.3039 H   0  0  0  0  0  0  0  0  0  0  0  0
   78.3207    5.6286   64.3778 H   0  0  0  0  0  0  0  0  0  0  0  0
   79.9146    7.3548   63.6696 H   0  0  0  0  0  0  0  0  0  0  0  0
   81.5810    8.2287   65.2541 H   0  0  0  0  0  0  0  0  0  0  0  0
   82.5765   12.1222   65.9615 H   0  0  0  0  0  0  0  0  0  0  0  0
   84.2791   13.2795   64.6314 H   0  0  0  0  0  0  0  0  0  0  0  0
   87.2208   10.4725   65.8627 H   0  0  0  0  0  0  0  0  0  0  0  0
   86.8361    7.5256   68.0110 H   0  0  0  0  0  0  0  0  0  0  0  0
   87.6167    8.8096   67.1380 H   0  0  0  0  0  0  0  0  0  0  0  0
  1  2  1  0
  1 12  1  0
  1 26  1  0
  2  3  1  0
  2 27  1  0
  2 28  1  0
  3  4  2  0
  3 11  1  0
  4  5  1  0
  4 29  1  0
  5  6  1  0
  5  9  2  0
  6  7  2  0
  6  8  1  0
  9 10  1  0
  9 30  1  0
 10 11  2  0
 10 31  1  0
 11 32  1  0
 12 13  2  0
 12 14  1  0
 14 15  2  0
 14 20  1  0
 15 16  1  0
 15 33  1  0
 16 17  2  0
 16 34  1  0
 17 18  1  0
 17 19  1  0
 19 20  2  0
 19 35  1  0
 20 21  1  0
 21 22  1  0
 22 23  1  0
 22 36  1  0
 22 37  1  0
 23 24  2  0
 23 25  1  0
M  CHG  3   6   1   8  -1  25  -1
M  END
$$$$
