7RUI - prepared_ligand
     RDKit          3D

 79 84  0  0  1  0  0  0  0  0999 V2000
    9.2133   11.1809    5.3871 C   0  0  0  0  0  0  0  0  0  0  0  0
   13.0592   14.1682    4.3300 C   0  0  0  0  0  0  0  0  0  0  0  0
   13.4639   14.5247    5.6180 C   0  0  0  0  0  0  0  0  0  0  0  0
   14.6546   15.2295    5.8615 C   0  0  0  0  0  0  0  0  0  0  0  0
   15.4803   15.5163    4.7485 C   0  0  0  0  0  0  0  0  0  0  0  0
   15.0849   15.0983    3.4410 C   0  0  0  0  0  0  0  0  0  0  0  0
   13.8928   14.4054    3.2383 C   0  0  0  0  0  0  0  0  0  0  0  0
   16.9885   16.2495    3.2293 C   0  0  0  0  0  0  0  0  0  0  0  0
   16.7076   16.2354    4.5731 C   0  0  0  0  0  0  0  0  0  0  0  0
   15.9602   15.4099    1.0158 C   0  0  0  0  0  0  0  0  0  0  0  0
   17.4005   15.6213    0.4373 C   0  0  0  0  0  0  0  0  0  0  0  0
   15.5755   13.9560    0.6051 C   0  0  0  0  0  0  0  0  0  0  0  0
   15.8892   11.6599    0.9752 C   0  0  0  0  0  0  0  0  0  0  0  0
    9.0218   12.7284    3.5037 C   0  0  0  0  0  0  0  0  0  0  0  0
    9.7036   13.6985    2.6205 C   0  0  0  0  0  0  0  0  0  0  0  0
   10.9797   14.0907    2.8811 C   0  0  0  0  0  0  0  0  0  0  0  0
   11.7088   13.6315    4.0515 C   0  0  0  0  0  0  0  0  0  0  0  0
   11.0416   12.7481    4.8193 C   0  0  0  0  0  0  0  0  0  0  0  0
    9.7869   12.2437    4.5542 N   0  0  0  0  0  0  0  0  0  0  0  0
   16.0307   15.5517    2.5149 N   0  0  0  0  0  0  0  0  0  0  0  0
   16.2194   12.9453    1.2629 N   0  0  0  0  0  0  0  0  0  0  0  0
   14.9224   11.3218    0.0290 C   0  0  0  0  0  0  0  0  0  0  0  0
   14.2767   12.3495   -0.6532 C   0  0  0  0  0  0  0  0  0  0  0  0
   14.6058   13.6743   -0.3719 C   0  0  0  0  0  0  0  0  0  0  0  0
   14.9932   16.4777    0.3962 C   0  0  0  0  0  0  0  0  0  0  0  0
   13.9052   17.0330    1.0959 C   0  0  0  0  0  0  0  0  0  0  0  0
   13.0698   17.9535    0.4616 C   0  0  0  0  0  0  0  0  0  0  0  0
   13.3242   18.3155   -0.8595 C   0  0  0  0  0  0  0  0  0  0  0  0
   14.4139   17.7343   -1.5049 C   0  0  0  0  0  0  0  0  0  0  0  0
   15.2325   16.8353   -0.9017 N   0  0  0  0  0  0  0  0  0  0  0  0
   15.0799   15.7252    7.0747 N   0  0  0  0  0  0  0  0  0  0  0  0
   14.1685   15.9100    8.3400 S   0  0  0  0  0  0  0  0  0  0  0  0
   14.0301   14.1906    9.1117 C   0  0  0  0  0  0  0  0  0  0  0  0
   15.4015   13.5872    9.4431 C   0  0  0  0  0  0  0  0  0  0  0  0
   15.2255   12.4257   10.0695 F   0  0  0  0  0  0  0  0  0  0  0  0
   16.1319   13.3472    8.3570 F   0  0  0  0  0  0  0  0  0  0  0  0
   16.1174   14.3654   10.2532 F   0  0  0  0  0  0  0  0  0  0  0  0
   12.7926   16.2844    8.0088 O   0  0  0  0  0  0  0  0  0  0  0  0
   14.8094   16.7407    9.3645 O   0  0  0  0  0  0  0  0  0  0  0  0
    8.9839   14.1491    1.5233 N   0  0  0  0  0  0  0  0  0  0  0  0
    9.2653   15.1539    0.6527 C   0  0  0  0  0  0  0  0  0  0  0  0
    8.3546   15.2194   -0.3398 N   0  0  0  0  0  0  0  0  0  0  0  0
    8.2894   16.0865   -1.4561 C   0  0  0  0  0  0  0  0  0  0  0  0
    9.2272   17.0985   -1.7425 C   0  0  0  0  0  0  0  0  0  0  0  0
    9.0913   17.8940   -2.8787 C   0  0  0  0  0  0  0  0  0  0  0  0
    8.0203   17.6972   -3.7457 C   0  0  0  0  0  0  0  0  0  0  0  0
    7.0800   16.7067   -3.4721 C   0  0  0  0  0  0  0  0  0  0  0  0
    7.2094   15.9081   -2.3352 C   0  0  0  0  0  0  0  0  0  0  0  0
    6.2717   14.9601   -2.1008 F   0  0  0  0  0  0  0  0  0  0  0  0
   10.2250   15.9176    0.7466 O   0  0  0  0  0  0  0  0  0  0  0  0
    7.8573   12.3665    3.2963 O   0  0  0  0  0  0  0  0  0  0  0  0
    9.9976   10.4943    5.7079 H   0  0  0  0  0  0  0  0  0  0  0  0
    8.7463   11.5925    6.2806 H   0  0  0  0  0  0  0  0  0  0  0  0
    8.4750   10.5787    4.8567 H   0  0  0  0  0  0  0  0  0  0  0  0
   12.7847   14.3236    6.4311 H   0  0  0  0  0  0  0  0  0  0  0  0
   13.5856   14.1157    2.2458 H   0  0  0  0  0  0  0  0  0  0  0  0
   17.8145   16.7279    2.7257 H   0  0  0  0  0  0  0  0  0  0  0  0
   17.2978   16.7192    5.3359 H   0  0  0  0  0  0  0  0  0  0  0  0
   17.7274   16.6587    0.5164 H   0  0  0  0  0  0  0  0  0  0  0  0
   18.1435   15.0001    0.9387 H   0  0  0  0  0  0  0  0  0  0  0  0
   17.4517   15.3627   -0.6218 H   0  0  0  0  0  0  0  0  0  0  0  0
   16.4164   10.8927    1.5223 H   0  0  0  0  0  0  0  0  0  0  0  0
   11.4997   14.7777    2.2383 H   0  0  0  0  0  0  0  0  0  0  0  0
   11.4478   12.3568    5.7406 H   0  0  0  0  0  0  0  0  0  0  0  0
   14.6754   10.2915   -0.1773 H   0  0  0  0  0  0  0  0  0  0  0  0
   13.5246   12.1263   -1.3942 H   0  0  0  0  0  0  0  0  0  0  0  0
   14.1005   14.4562   -0.9115 H   0  0  0  0  0  0  0  0  0  0  0  0
   13.6746   16.7669    2.1112 H   0  0  0  0  0  0  0  0  0  0  0  0
   12.2263   18.3757    0.9882 H   0  0  0  0  0  0  0  0  0  0  0  0
   12.6877   19.0221   -1.3711 H   0  0  0  0  0  0  0  0  0  0  0  0
   14.6417   17.9803   -2.5315 H   0  0  0  0  0  0  0  0  0  0  0  0
   13.4778   13.5600    8.4220 H   0  0  0  0  0  0  0  0  0  0  0  0
   13.4266   14.2998   10.0109 H   0  0  0  0  0  0  0  0  0  0  0  0
    8.1096   13.6657    1.3719 H   0  0  0  0  0  0  0  0  0  0  0  0
    7.6160   14.5285   -0.3143 H   0  0  0  0  0  0  0  0  0  0  0  0
   10.0743   17.3050   -1.1102 H   0  0  0  0  0  0  0  0  0  0  0  0
    9.8190   18.6648   -3.0863 H   0  0  0  0  0  0  0  0  0  0  0  0
    7.9159   18.3129   -4.6270 H   0  0  0  0  0  0  0  0  0  0  0  0
    6.2461   16.5580   -4.1424 H   0  0  0  0  0  0  0  0  0  0  0  0
  1 19  1  0
  1 52  1  0
  1 53  1  0
  1 54  1  0
  2  3  2  0
  2  7  1  0
  2 17  1  0
  3  4  1  0
  3 55  1  0
  4  5  2  0
  4 31  1  0
  5  6  1  0
  5  9  1  0
  6  7  2  0
  6 20  1  0
  7 56  1  0
  8  9  2  0
  8 20  1  0
  8 57  1  0
  9 58  1  0
 10 11  1  0
 10 12  1  0
 10 20  1  0
 10 25  1  0
 11 59  1  0
 11 60  1  0
 11 61  1  0
 12 21  1  0
 12 24  2  0
 13 21  2  0
 13 22  1  0
 13 62  1  0
 14 15  1  0
 14 19  1  0
 14 51  2  0
 15 16  2  0
 15 40  1  0
 16 17  1  0
 16 63  1  0
 17 18  2  0
 18 19  1  0
 18 64  1  0
 22 23  2  0
 22 65  1  0
 23 24  1  0
 23 66  1  0
 24 67  1  0
 25 26  2  0
 25 30  1  0
 26 27  1  0
 26 68  1  0
 27 28  2  0
 27 69  1  0
 28 29  1  0
 28 70  1  0
 29 30  2  0
 29 71  1  0
 31 32  1  0
 32 33  1  0
 32 38  2  0
 32 39  2  0
 33 34  1  0
 33 72  1  0
 33 73  1  0
 34 35  1  0
 34 36  1  0
 34 37  1  0
 40 41  1  0
 40 74  1  0
 41 42  1  0
 41 50  2  0
 42 43  1  0
 42 75  1  0
 43 44  2  0
 43 48  1  0
 44 45  1  0
 44 76  1  0
 45 46  2  0
 45 77  1  0
 46 47  1  0
 46 78  1  0
 47 48  2  0
 47 79  1  0
 48 49  1  0
M  CHG  1  31  -1
M  END
$$$$
