1X8X - prepared_ligand
     RDKit          3D

 23 23  0  0  1  0  0  0  0  0999 V2000
    6.9365   27.6593   15.0025 N   0  0  0  0  0  0  0  0  0  0  0  0
    6.7636   28.1042   16.3990 C   0  0  2  0  0  0  0  0  0  0  0  0
    5.2644   28.1839   16.8812 C   0  0  0  0  0  0  0  0  0  0  0  0
    5.1133   28.0596   18.1177 O   0  0  0  0  0  0  0  0  0  0  0  0
    7.4771   29.4511   16.6617 C   0  0  0  0  0  0  0  0  0  0  0  0
    8.9924   29.3620   16.6024 C   0  0  0  0  0  0  0  0  0  0  0  0
    9.7062   28.7300   17.6415 C   0  0  0  0  0  0  0  0  0  0  0  0
    9.6936   29.9002   15.5055 C   0  0  0  0  0  0  0  0  0  0  0  0
   11.1133   28.6671   17.5945 C   0  0  0  0  0  0  0  0  0  0  0  0
   11.0962   29.8438   15.4566 C   0  0  0  0  0  0  0  0  0  0  0  0
   11.8047   29.2336   16.5063 C   0  0  0  0  0  0  0  0  0  0  0  0
   13.1623   29.1798   16.4591 O   0  0  0  0  0  0  0  0  0  0  0  0
    4.3804   28.3703   16.0120 O   0  0  0  0  0  0  0  0  0  0  0  0
    7.8728   27.3112   14.8377 H   0  0  0  0  0  0  0  0  0  0  0  0
    6.2948   26.9124   14.7646 H   0  0  0  0  0  0  0  0  0  0  0  0
    7.2342   27.3690   17.0547 H   0  0  0  0  0  0  0  0  0  0  0  0
    7.2239   29.8378   17.6485 H   0  0  0  0  0  0  0  0  0  0  0  0
    7.1388   30.2069   15.9520 H   0  0  0  0  0  0  0  0  0  0  0  0
    9.1765   28.3051   18.4815 H   0  0  0  0  0  0  0  0  0  0  0  0
    9.1575   30.3486   14.6885 H   0  0  0  0  0  0  0  0  0  0  0  0
   11.6590   28.1924   18.3959 H   0  0  0  0  0  0  0  0  0  0  0  0
   11.6178   30.2629   14.6092 H   0  0  0  0  0  0  0  0  0  0  0  0
   13.5204   29.5843   15.6577 H   0  0  0  0  0  0  0  0  0  0  0  0
  1  2  1  0
  1 14  1  0
  1 15  1  0
  2  3  1  0
  2  5  1  0
  2 16  1  1
  3  4  2  0
  3 13  1  0
  5  6  1  0
  5 17  1  0
  5 18  1  0
  6  7  2  0
  6  8  1  0
  7  9  1  0
  7 19  1  0
  8 10  2  0
  8 20  1  0
  9 11  2  0
  9 21  1  0
 10 11  1  0
 10 22  1  0
 11 12  1  0
 12 23  1  0
M  CHG  1  13  -1
M  END
$$$$
