7T2I - prepared_ligand
     RDKit          3D

 53 57  0  0  1  0  0  0  0  0999 V2000
 -126.9632 -171.5780  112.3910 C   0  0  2  0  0  0  0  0  0  0  0  0
 -125.1719 -171.3090  114.0327 C   0  0  0  0  0  0  0  0  0  0  0  0
 -129.7656 -171.7245  115.5280 C   0  0  0  0  0  0  0  0  0  0  0  0
 -133.3281 -173.0753  115.7906 C   0  0  0  0  0  0  0  0  0  0  0  0
 -132.8792 -172.8848  113.5843 C   0  0  0  0  0  0  0  0  0  0  0  0
 -131.0371 -172.0757  112.5016 C   0  0  0  0  0  0  0  0  0  0  0  0
 -124.8954 -169.2157  117.9463 C   0  0  0  0  0  0  0  0  0  0  0  0
 -127.5961 -170.4950  118.4285 C   0  0  0  0  0  0  0  0  0  0  0  0
 -127.0427 -171.4631  119.4575 C   0  0  0  0  0  0  0  0  0  0  0  0
 -128.3625 -170.7806  119.7106 C   0  0  0  0  0  0  0  0  0  0  0  0
 -128.0813 -170.9823  117.0683 C   0  0  0  0  0  0  0  0  0  0  0  0
 -127.5549 -171.3470  114.8359 C   0  0  0  0  0  0  0  0  0  0  0  0
 -126.9189 -173.0923  112.1063 C   0  0  0  0  0  0  0  0  0  0  0  0
 -126.0675 -170.8018  111.3958 C   0  0  0  0  0  0  0  0  0  0  0  0
 -124.3178 -170.6289  112.9410 C   0  0  0  0  0  0  0  0  0  0  0  0
 -131.1448 -172.1936  115.1552 C   0  0  0  0  0  0  0  0  0  0  0  0
 -132.0806 -172.5624  116.1388 C   0  0  0  0  0  0  0  0  0  0  0  0
 -131.5796 -172.3389  113.8105 C   0  0  0  0  0  0  0  0  0  0  0  0
 -131.9638 -172.4898  111.5711 C   0  0  0  0  0  0  0  0  0  0  0  0
 -129.4117 -171.3378  116.8296 C   0  0  0  0  0  0  0  0  0  0  0  0
 -126.5928 -168.3115  119.7707 N   0  0  0  0  0  0  0  0  0  0  0  0
 -127.1469 -170.9935  116.0837 N   0  0  0  0  0  0  0  0  0  0  0  0
 -126.6300 -171.2282  113.7916 N   0  0  0  0  0  0  0  0  0  0  0  0
 -128.8331 -171.7064  114.5333 N   0  0  0  0  0  0  0  0  0  0  0  0
 -133.7550 -173.2593  114.5182 N   0  0  0  0  0  0  0  0  0  0  0  0
 -133.0639 -172.9770  112.2257 N   0  0  0  0  0  0  0  0  0  0  0  0
 -124.6982 -171.0751  111.6490 O   0  0  0  0  0  0  0  0  0  0  0  0
 -127.2548 -168.0077  117.2315 O   0  0  0  0  0  0  0  0  0  0  0  0
 -126.6948 -168.8074  118.3252 S   0  0  1  0  0  0  0  0  0  0  0  0
 -127.9689 -171.2187  112.1809 H   0  0  0  0  0  0  0  0  0  0  0  0
 -124.9195 -170.8204  114.9731 H   0  0  0  0  0  0  0  0  0  0  0  0
 -124.8857 -172.3550  114.1479 H   0  0  0  0  0  0  0  0  0  0  0  0
 -134.0204 -173.3674  116.5669 H   0  0  0  0  0  0  0  0  0  0  0  0
 -130.0806 -171.6482  112.2499 H   0  0  0  0  0  0  0  0  0  0  0  0
 -124.2941 -168.3200  118.0908 H   0  0  0  0  0  0  0  0  0  0  0  0
 -124.5580 -169.9998  118.6227 H   0  0  0  0  0  0  0  0  0  0  0  0
 -124.8180 -169.5534  116.9154 H   0  0  0  0  0  0  0  0  0  0  0  0
 -126.1881 -171.1731  120.0689 H   0  0  0  0  0  0  0  0  0  0  0  0
 -127.0418 -172.5276  119.2248 H   0  0  0  0  0  0  0  0  0  0  0  0
 -129.2574 -171.3952  119.6948 H   0  0  0  0  0  0  0  0  0  0  0  0
 -128.4297 -170.0047  120.4696 H   0  0  0  0  0  0  0  0  0  0  0  0
 -127.5260 -173.6454  112.8229 H   0  0  0  0  0  0  0  0  0  0  0  0
 -127.3044 -173.3146  111.1114 H   0  0  0  0  0  0  0  0  0  0  0  0
 -125.9033 -173.4852  112.1604 H   0  0  0  0  0  0  0  0  0  0  0  0
 -126.2653 -169.7293  111.4593 H   0  0  0  0  0  0  0  0  0  0  0  0
 -126.3130 -171.0724  110.3680 H   0  0  0  0  0  0  0  0  0  0  0  0
 -123.2656 -170.8696  113.0940 H   0  0  0  0  0  0  0  0  0  0  0  0
 -124.3935 -169.5424  113.0081 H   0  0  0  0  0  0  0  0  0  0  0  0
 -131.8503 -172.4779  117.1850 H   0  0  0  0  0  0  0  0  0  0  0  0
 -131.9376 -172.4800  110.4903 H   0  0  0  0  0  0  0  0  0  0  0  0
 -130.1317 -171.3113  117.6311 H   0  0  0  0  0  0  0  0  0  0  0  0
 -127.0763 -167.4369  119.9162 H   0  0  0  0  0  0  0  0  0  0  0  0
 -133.8704 -173.3492  111.7388 H   0  0  0  0  0  0  0  0  0  0  0  0
  1 13  1  0
  1 14  1  0
  1 23  1  0
  1 30  1  6
  2 15  1  0
  2 23  1  0
  2 31  1  0
  2 32  1  0
  3 16  1  0
  3 20  2  0
  3 24  1  0
  4 17  2  0
  4 25  1  0
  4 33  1  0
  5 18  1  0
  5 25  2  0
  5 26  1  0
  6 18  1  0
  6 19  2  0
  6 34  1  0
 29  7  1  6
  7 35  1  0
  7 36  1  0
  7 37  1  0
  8  9  1  0
  8 10  1  0
  8 11  1  0
  8 29  1  0
  9 10  1  0
  9 38  1  0
  9 39  1  0
 10 40  1  0
 10 41  1  0
 11 20  1  0
 11 22  2  0
 12 22  1  0
 12 23  1  0
 12 24  2  0
 13 42  1  0
 13 43  1  0
 13 44  1  0
 14 27  1  0
 14 45  1  0
 14 46  1  0
 15 27  1  0
 15 47  1  0
 15 48  1  0
 16 17  1  0
 16 18  2  0
 17 49  1  0
 19 26  1  0
 19 50  1  0
 20 51  1  0
 21 29  2  0
 21 52  1  0
 26 53  1  0
 28 29  2  0
M  END
$$$$
