3EJR_ligand
     RDKit          3D

 25 27  0  0  1  0  0  0  0  0999 V2000
   26.3687   65.6577    8.1282 O   0  0  0  0  0  0  0  0  0  0  0  0
   26.8440   66.5543    8.8265 C   0  0  0  0  0  0  0  0  0  0  0  0
   25.9886   67.4653    9.6509 C   0  0  0  0  0  0  0  0  0  0  0  0
   26.5459   68.4654   10.4573 C   0  0  0  0  0  0  0  0  0  0  0  0
   25.7257   69.3189   11.1844 C   0  0  0  0  0  0  0  0  0  0  0  0
   24.3317   69.2027   11.1305 C   0  0  0  0  0  0  0  0  0  0  0  0
   23.4593   70.1920   11.9411 C   0  0  0  0  0  0  0  0  0  0  0  0
   23.7957   71.6481   11.5326 C   0  0  0  0  0  0  0  0  0  0  0  0
   21.9371   69.9965   11.7210 C   0  0  0  0  0  0  0  0  0  0  0  0
   23.7426   70.0044   13.4504 C   0  0  0  0  0  0  0  0  0  0  0  0
   23.7783   68.1809   10.3441 C   0  0  0  0  0  0  0  0  0  0  0  0
   24.5952   67.3238    9.6144 C   0  0  0  0  0  0  0  0  0  0  0  0
   28.3710   66.7577    8.8903 C   0  0  0  0  0  0  0  0  0  0  0  0
   29.2350   65.6679    8.2000 C   0  0  2  0  0  0  0  0  0  0  0  0
   30.7368   65.8874    8.4745 N   0  0  2  0  0  0  0  0  0  0  0  0
   31.2458   66.0315    9.9086 C   0  0  0  0  0  0  0  0  0  0  0  0
   32.6879   66.5120    9.7278 C   0  0  1  0  0  0  0  0  0  0  0  0
   33.5681   65.4369    9.9732 O   0  0  0  0  0  0  0  0  0  0  0  0
   32.8103   67.0808    8.2896 C   0  0  1  0  0  0  0  0  0  0  0  0
   33.6352   66.3010    7.4318 O   0  0  0  0  0  0  0  0  0  0  0  0
   31.3470   67.1289    7.8003 C   0  0  1  0  0  0  0  0  0  0  0  0
   31.0764   67.0919    6.2800 C   0  0  2  0  0  0  0  0  0  0  0  0
   31.5143   68.3087    5.7303 O   0  0  0  0  0  0  0  0  0  0  0  0
   29.5993   66.8209    5.9344 C   0  0  0  0  0  0  0  0  0  0  0  0
   29.0974   65.5644    6.6643 C   0  0  0  0  0  0  0  0  0  0  0  0
  1  2  2  0
  2  3  1  0
  2 13  1  0
  3  4  2  0
  3 12  1  0
  4  5  1  0
  5  6  2  0
  6  7  1  0
  6 11  1  0
  7  8  1  0
  7  9  1  0
  7 10  1  0
 11 12  2  0
 14 13  1  6
 14 15  1  0
 14 25  1  0
 15 16  1  1
 15 21  1  0
 16 17  1  0
 17 18  1  6
 17 19  1  0
 19 20  1  6
 19 21  1  0
 21 22  1  6
 22 23  1  1
 22 24  1  0
 24 25  1  0
M  CHG  1  15   1
M  END
$$$$
