7N4N - prepared_ligand
     RDKit          3D

 56 58  0  0  1  0  0  0  0  0999 V2000
   25.3112  -15.8903  -14.3573 C   0  0  0  0  0  0  0  0  0  0  0  0
   23.8856  -14.0327  -14.9500 C   0  0  0  0  0  0  0  0  0  0  0  0
   22.6612  -13.5377  -15.4132 C   0  0  0  0  0  0  0  0  0  0  0  0
   22.5273  -12.1440  -15.5403 C   0  0  0  0  0  0  0  0  0  0  0  0
   24.6983  -11.8850  -14.7634 C   0  0  0  0  0  0  0  0  0  0  0  0
   20.4068   -9.3544  -17.0173 C   0  0  0  0  0  0  0  0  0  0  0  0
   18.7689   -7.4999  -18.3236 C   0  0  0  0  0  0  0  0  0  0  0  0
   20.0332   -7.0826  -17.8638 C   0  0  0  0  0  0  0  0  0  0  0  0
   20.8120   -8.0272  -17.1714 C   0  0  0  0  0  0  0  0  0  0  0  0
   20.5417   -5.6349  -18.1385 C   0  0  2  0  0  0  0  0  0  0  0  0
   21.6978   -6.0595  -20.4259 C   0  0  0  0  0  0  0  0  0  0  0  0
   23.0829   -5.5834  -19.9099 C   0  0  2  0  0  0  0  0  0  0  0  0
   25.2821   -3.4963  -20.4666 C   0  0  0  0  0  0  0  0  0  0  0  0
   24.0674  -15.3977  -14.8539 O   0  0  0  0  0  0  0  0  0  0  0  0
   23.5543  -11.3116  -15.2023 N   0  0  0  0  0  0  0  0  0  0  0  0
   24.9173  -13.2072  -14.6156 N   0  0  0  0  0  0  0  0  0  0  0  0
   21.2623  -11.5257  -16.1009 C   0  0  0  0  0  0  0  0  0  0  0  0
   20.2656  -12.2217  -16.2881 O   0  0  0  0  0  0  0  0  0  0  0  0
   21.3348  -10.2063  -16.3924 N   0  0  0  0  0  0  0  0  0  0  0  0
   19.1608   -9.7465  -17.5240 C   0  0  0  0  0  0  0  0  0  0  0  0
   18.3403   -8.8139  -18.1503 C   0  0  0  0  0  0  0  0  0  0  0  0
   17.9399   -6.6424  -18.9582 F   0  0  0  0  0  0  0  0  0  0  0  0
   19.6229   -4.6316  -17.3862 C   0  0  0  0  0  0  0  0  0  0  0  0
   19.9828   -3.3442  -17.4557 F   0  0  0  0  0  0  0  0  0  0  0  0
   20.5650   -5.3490  -19.6681 C   0  0  0  0  0  0  0  0  0  0  0  0
   24.1805   -6.5778  -20.3600 C   0  0  0  0  0  0  0  0  0  0  0  0
   23.0468   -5.3435  -18.3928 C   0  0  0  0  0  0  0  0  0  0  0  0
   24.1705   -5.1222  -17.7214 N   0  0  0  0  0  0  0  0  0  0  0  0
   21.9190   -5.3473  -17.6768 N   0  0  0  0  0  0  0  0  0  0  0  0
   23.4530   -3.8841  -20.7445 S   0  0  0  0  0  0  0  0  0  0  0  0
   22.6890   -2.8537  -20.0375 O   0  0  0  0  0  0  0  0  0  0  0  0
   23.2732   -4.0427  -22.1931 O   0  0  0  0  0  0  0  0  0  0  0  0
   25.3255  -16.9741  -14.4054 H   0  0  0  0  0  0  0  0  0  0  0  0
   26.1543  -15.5387  -14.9517 H   0  0  0  0  0  0  0  0  0  0  0  0
   25.4673  -15.5955  -13.3188 H   0  0  0  0  0  0  0  0  0  0  0  0
   21.8655  -14.2174  -15.6824 H   0  0  0  0  0  0  0  0  0  0  0  0
   25.5370  -11.2391  -14.5683 H   0  0  0  0  0  0  0  0  0  0  0  0
   21.7651   -7.7366  -16.7600 H   0  0  0  0  0  0  0  0  0  0  0  0
   21.5919   -7.1351  -20.2751 H   0  0  0  0  0  0  0  0  0  0  0  0
   21.5979   -5.9046  -21.5010 H   0  0  0  0  0  0  0  0  0  0  0  0
   25.5112   -2.5750  -20.9999 H   0  0  0  0  0  0  0  0  0  0  0  0
   25.4768   -3.3545  -19.4052 H   0  0  0  0  0  0  0  0  0  0  0  0
   25.8976   -4.2991  -20.8663 H   0  0  0  0  0  0  0  0  0  0  0  0
   22.2150   -9.7632  -16.1668 H   0  0  0  0  0  0  0  0  0  0  0  0
   18.8044  -10.7609  -17.4583 H   0  0  0  0  0  0  0  0  0  0  0  0
   17.3729   -9.1164  -18.5252 H   0  0  0  0  0  0  0  0  0  0  0  0
   19.5525   -4.8737  -16.3253 H   0  0  0  0  0  0  0  0  0  0  0  0
   18.6037   -4.6723  -17.7631 H   0  0  0  0  0  0  0  0  0  0  0  0
   20.6595   -4.2790  -19.8334 H   0  0  0  0  0  0  0  0  0  0  0  0
   19.6190   -5.6013  -20.1408 H   0  0  0  0  0  0  0  0  0  0  0  0
   25.1766   -6.2582  -20.0635 H   0  0  0  0  0  0  0  0  0  0  0  0
   24.0244   -7.5587  -19.9116 H   0  0  0  0  0  0  0  0  0  0  0  0
   24.1827   -6.7068  -21.4431 H   0  0  0  0  0  0  0  0  0  0  0  0
   24.1391   -4.9582  -16.7210 H   0  0  0  0  0  0  0  0  0  0  0  0
   25.0681   -5.1483  -18.1873 H   0  0  0  0  0  0  0  0  0  0  0  0
   22.0299   -5.1593  -16.6883 H   0  0  0  0  0  0  0  0  0  0  0  0
  1 14  1  0
  1 33  1  0
  1 34  1  0
  1 35  1  0
  2  3  2  0
  2 14  1  0
  2 16  1  0
  3  4  1  0
  3 36  1  0
  4 15  2  0
  4 17  1  0
  5 15  1  0
  5 16  2  0
  5 37  1  0
  6  9  2  0
  6 19  1  0
  6 20  1  0
  7  8  2  0
  7 21  1  0
  7 22  1  0
  8  9  1  0
  8 10  1  0
  9 38  1  0
 10 23  1  1
 10 25  1  0
 10 29  1  0
 11 12  1  0
 11 25  1  0
 11 39  1  0
 11 40  1  0
 12 26  1  1
 12 27  1  0
 12 30  1  0
 13 30  1  0
 13 41  1  0
 13 42  1  0
 13 43  1  0
 17 18  2  0
 17 19  1  0
 19 44  1  0
 20 21  2  0
 20 45  1  0
 21 46  1  0
 23 24  1  0
 23 47  1  0
 23 48  1  0
 25 49  1  0
 25 50  1  0
 26 51  1  0
 26 52  1  0
 26 53  1  0
 27 28  1  0
 27 29  2  0
 28 54  1  0
 28 55  1  0
 29 56  1  0
 30 31  2  0
 30 32  2  0
M  CHG  1  29   1
M  END
$$$$
