4CRC_ligand
     RDKit          3D

 39 43  0  0  1  0  0  0  0  0999 V2000
  -49.5799  -10.0255  -23.2327 C   0  0  0  0  0  0  0  0  0  0  0  0
  -49.4958   -9.1163  -24.0565 O   0  0  0  0  0  0  0  0  0  0  0  0
  -48.7261  -10.0058  -22.0735 C   0  0  0  0  0  0  0  0  0  0  0  0
  -48.9923  -10.6109  -20.9003 C   0  0  0  0  0  0  0  0  0  0  0  0
  -48.1380  -10.4759  -19.7058 C   0  0  0  0  0  0  0  0  0  0  0  0
  -46.7424  -10.5113  -19.8518 C   0  0  0  0  0  0  0  0  0  0  0  0
  -45.9014  -10.3484  -18.7532 C   0  0  0  0  0  0  0  0  0  0  0  0
  -46.4481  -10.1311  -17.4930 C   0  0  0  0  0  0  0  0  0  0  0  0
  -47.8296  -10.0976  -17.3280 C   0  0  0  0  0  0  0  0  0  0  0  0
  -48.6892  -10.2682  -18.4202 C   0  0  0  0  0  0  0  0  0  0  0  0
  -50.0876  -10.2186  -18.1777 N   0  0  0  0  0  0  0  0  0  0  0  0
  -50.7995  -10.7577  -17.1309 C   0  0  0  0  0  0  0  0  0  0  0  0
  -52.0794  -10.5155  -17.2452 N   0  0  0  0  0  0  0  0  0  0  0  0
  -52.1984   -9.7771  -18.4155 N   0  0  0  0  0  0  0  0  0  0  0  0
  -50.9527   -9.5747  -18.9788 N   0  0  0  0  0  0  0  0  0  0  0  0
  -44.1882  -10.4408  -18.9444 Cl  0  0  0  0  0  0  0  0  0  0  0  0
  -50.4298  -11.0624  -23.3785 N   0  0  0  0  0  0  0  0  0  0  0  0
  -51.3401  -11.1982  -24.5241 C   0  0  2  0  0  0  0  0  0  0  0  0
  -52.5403  -10.2338  -24.4486 C   0  0  0  0  0  0  0  0  0  0  0  0
  -53.2701  -10.2708  -23.4551 O   0  0  0  0  0  0  0  0  0  0  0  0
  -51.7891  -12.6677  -24.7119 C   0  0  0  0  0  0  0  0  0  0  0  0
  -52.3742  -13.0337  -26.0764 C   0  0  0  0  0  0  0  0  0  0  0  0
  -53.2999  -14.0959  -26.1650 C   0  0  0  0  0  0  0  0  0  0  0  0
  -51.8730  -12.4783  -27.2799 C   0  0  0  0  0  0  0  0  0  0  0  0
  -53.7463  -14.5376  -27.4035 C   0  0  0  0  0  0  0  0  0  0  0  0
  -52.3420  -12.9236  -28.5065 C   0  0  0  0  0  0  0  0  0  0  0  0
  -53.2712  -13.9513  -28.5685 C   0  0  0  0  0  0  0  0  0  0  0  0
  -52.7005   -9.4537  -25.5372 N   0  0  0  0  0  0  0  0  0  0  0  0
  -53.7150   -8.5358  -25.8498 C   0  0  0  0  0  0  0  0  0  0  0  0
  -53.5338   -7.8072  -27.0258 C   0  0  0  0  0  0  0  0  0  0  0  0
  -54.4831   -6.8743  -27.4265 C   0  0  0  0  0  0  0  0  0  0  0  0
  -55.6313   -6.6553  -26.6557 C   0  0  0  0  0  0  0  0  0  0  0  0
  -55.8112   -7.3922  -25.4789 C   0  0  0  0  0  0  0  0  0  0  0  0
  -54.8688   -8.3338  -25.0805 C   0  0  0  0  0  0  0  0  0  0  0  0
  -56.6679   -5.6609  -27.0923 C   0  0  0  0  0  0  0  0  0  0  0  0
  -56.8872   -5.3603  -28.3528 N   0  0  0  0  0  0  0  0  0  0  0  0
  -57.9118   -4.4449  -28.3378 N   0  0  0  0  0  0  0  0  0  0  0  0
  -58.2753   -4.2510  -27.0323 N   0  0  0  0  0  0  0  0  0  0  0  0
  -57.4535   -5.0248  -26.2515 N   0  0  0  0  0  0  0  0  0  0  0  0
  1  2  2  0
  1  3  1  0
  1 17  1  0
  3  4  2  0
  4  5  1  0
  5  6  2  0
  5 10  1  0
  6  7  1  0
  7  8  2  0
  7 16  1  0
  8  9  1  0
  9 10  2  0
 10 11  1  0
 11 12  1  0
 11 15  1  0
 12 13  2  0
 13 14  1  0
 14 15  2  0
 17 18  1  0
 18 19  1  0
 18 21  1  1
 19 20  2  0
 19 28  1  0
 21 22  1  0
 22 23  2  0
 22 24  1  0
 23 25  1  0
 24 26  2  0
 25 27  2  0
 26 27  1  0
 28 29  1  0
 29 30  2  0
 29 34  1  0
 30 31  1  0
 31 32  2  0
 32 33  1  0
 32 35  1  0
 33 34  2  0
 35 36  1  0
 35 39  2  0
 36 37  1  0
 37 38  2  0
 38 39  1  0
M  CHG  1  36  -1
M  END
$$$$
