3ACW_ligand
     RDKit          3D

 21 24  0  0  1  0  0  0  0  0999 V2000
   54.7882   12.5532   53.5626 O   0  0  0  0  0  0  0  0  0  0  0  0
   57.7473   21.1359   53.3104 C   0  0  0  0  0  0  0  0  0  0  0  0
   57.7028   20.3289   54.4406 C   0  0  0  0  0  0  0  0  0  0  0  0
   57.5177   20.5898   52.0524 C   0  0  0  0  0  0  0  0  0  0  0  0
   57.4276   18.9709   54.3121 C   0  0  0  0  0  0  0  0  0  0  0  0
   57.2435   19.2324   51.9232 C   0  0  0  0  0  0  0  0  0  0  0  0
   56.0117   16.4894   51.9230 C   0  0  0  0  0  0  0  0  0  0  0  0
   57.4245   16.0087   53.8035 C   0  0  0  0  0  0  0  0  0  0  0  0
   55.6989   15.1393   51.8148 C   0  0  0  0  0  0  0  0  0  0  0  0
   57.1148   14.6564   53.6934 C   0  0  0  0  0  0  0  0  0  0  0  0
   58.0827   11.7216   51.9181 C   0  0  0  0  0  0  0  0  0  0  0  0
   56.4335   10.2517   53.0631 C   0  0  0  0  0  0  0  0  0  0  0  0
   57.5102   11.2855   50.5400 C   0  0  0  0  0  0  0  0  0  0  0  0
   55.7955    9.8370   51.7102 C   0  0  0  0  0  0  0  0  0  0  0  0
   55.2911   12.2597   51.2113 C   0  0  0  0  0  0  0  0  0  0  0  0
   57.1911   18.4017   53.0522 C   0  0  0  0  0  0  0  0  0  0  0  0
   56.8778   16.9467   52.9213 C   0  0  0  0  0  0  0  0  0  0  0  0
   56.2501   14.1934   52.6916 C   0  0  0  0  0  0  0  0  0  0  0  0
   57.0010   11.7018   53.0378 C   0  0  2  0  0  0  0  0  0  0  0  0
   55.9960   10.9806   50.6890 N   0  0  1  0  0  0  0  0  0  0  0  0
   55.8441   12.6965   52.6285 C   0  0  1  0  0  0  0  0  0  0  0  0
 21  1  1  1
  2  3  2  0
  2  4  1  0
  3  5  1  0
  4  6  2  0
  5 16  2  0
  6 16  1  0
  7  9  2  0
  7 17  1  0
  8 10  1  0
  8 17  2  0
  9 18  1  0
 10 18  2  0
 11 13  1  0
 19 11  1  6
 12 14  1  0
 12 19  1  0
 20 13  1  1
 14 20  1  0
 15 20  1  0
 15 21  1  0
 16 17  1  0
 18 21  1  0
 19 21  1  0
M  CHG  1  20   1
M  END
$$$$
