3EBP_ligand
     RDKit          3D

 28 31  0  0  1  0  0  0  0  0999 V2000
   43.6308   39.7857   27.5262 C   0  0  0  0  0  0  0  0  0  0  0  0
   42.6797   39.4315   28.6865 N   0  0  1  0  0  0  0  0  0  0  0  0
   41.2065   39.6549   28.2604 C   0  0  0  0  0  0  0  0  0  0  0  0
   40.2527   39.3127   29.4296 C   0  0  0  0  0  0  0  0  0  0  0  0
   40.5234   37.9018   30.0099 C   0  0  1  0  0  0  0  0  0  0  0  0
   42.0199   37.7126   30.3873 C   0  0  1  0  0  0  0  0  0  0  0  0
   42.9134   37.9716   29.1532 C   0  0  0  0  0  0  0  0  0  0  0  0
   39.5069   37.4465   31.0862 C   0  0  0  0  0  0  0  0  0  0  0  0
   38.6992   36.3111   30.8717 C   0  0  0  0  0  0  0  0  0  0  0  0
   38.8880   35.6090   29.6895 O   0  0  0  0  0  0  0  0  0  0  0  0
   38.0265   34.6164   29.3467 C   0  0  0  0  0  0  0  0  0  0  0  0
   37.0557   34.1720   30.1717 C   0  0  0  0  0  0  0  0  0  0  0  0
   36.8491   34.7258   31.4949 C   0  0  0  0  0  0  0  0  0  0  0  0
   36.0124   34.2770   32.2779 O   0  0  0  0  0  0  0  0  0  0  0  0
   37.7429   35.8883   31.8184 C   0  0  0  0  0  0  0  0  0  0  0  0
   37.6600   36.5835   33.0380 C   0  0  0  0  0  0  0  0  0  0  0  0
   36.8098   36.2111   34.0490 O   0  0  0  0  0  0  0  0  0  0  0  0
   38.4487   37.7026   33.2573 C   0  0  0  0  0  0  0  0  0  0  0  0
   39.3400   38.1504   32.2929 C   0  0  0  0  0  0  0  0  0  0  0  0
   40.0336   39.2937   32.5804 O   0  0  0  0  0  0  0  0  0  0  0  0
   38.3670   33.9748   28.0480 C   0  0  0  0  0  0  0  0  0  0  0  0
   38.7577   34.6951   26.8988 C   0  0  0  0  0  0  0  0  0  0  0  0
   38.9151   36.4183   26.8894 Cl  0  0  0  0  0  0  0  0  0  0  0  0
   39.0246   34.0222   25.7032 C   0  0  0  0  0  0  0  0  0  0  0  0
   38.8991   32.6376   25.6235 C   0  0  0  0  0  0  0  0  0  0  0  0
   38.5144   31.9139   26.7471 C   0  0  0  0  0  0  0  0  0  0  0  0
   38.2512   32.5790   27.9413 C   0  0  0  0  0  0  0  0  0  0  0  0
   42.4419   38.5245   31.4684 O   0  0  0  0  0  0  0  0  0  0  0  0
  2  1  1  6
  2  3  1  0
  2  7  1  0
  3  4  1  0
  4  5  1  0
  5  6  1  0
  5  8  1  1
  6  7  1  0
  6 28  1  1
  8  9  2  0
  8 19  1  0
  9 10  1  0
  9 15  1  0
 10 11  1  0
 11 12  2  0
 11 21  1  0
 12 13  1  0
 13 14  2  0
 13 15  1  0
 15 16  2  0
 16 17  1  0
 16 18  1  0
 18 19  2  0
 19 20  1  0
 21 22  2  0
 21 27  1  0
 22 23  1  0
 22 24  1  0
 24 25  2  0
 25 26  1  0
 26 27  2  0
M  CHG  1   2   1
M  END
$$$$
