4W9I_ligand
     RDKit          3D

 33 36  0  0  1  0  0  0  0  0999 V2000
  -36.2028   54.9101   96.0628 C   0  0  0  0  0  0  0  0  0  0  0  0
  -35.3002   54.9336   94.8286 C   0  0  0  0  0  0  0  0  0  0  0  0
  -34.9148   56.0251   94.4061 O   0  0  0  0  0  0  0  0  0  0  0  0
  -34.9937   53.7624   94.2178 N   0  0  0  0  0  0  0  0  0  0  0  0
  -35.2490   52.4280   94.7751 C   0  0  0  0  0  0  0  0  0  0  0  0
  -33.9517   51.6686   94.4659 C   0  0  2  0  0  0  0  0  0  0  0  0
  -32.9485   52.0389   95.3946 O   0  0  0  0  0  0  0  0  0  0  0  0
  -33.5870   52.2001   93.0841 C   0  0  0  0  0  0  0  0  0  0  0  0
  -34.0709   53.6693   93.0699 C   0  0  1  0  0  0  0  0  0  0  0  0
  -34.7301   54.0377   91.7157 C   0  0  0  0  0  0  0  0  0  0  0  0
  -35.9486   53.8920   91.5823 O   0  0  0  0  0  0  0  0  0  0  0  0
  -33.9483   54.4936   90.7030 N   0  0  0  0  0  0  0  0  0  0  0  0
  -32.5103   54.7681   90.8278 C   0  0  0  0  0  0  0  0  0  0  0  0
  -32.1759   55.6198   89.6028 C   0  0  2  0  0  0  0  0  0  0  0  0
  -32.5298   56.9711   89.8247 O   0  0  0  0  0  0  0  0  0  0  0  0
  -33.1041   55.0407   88.5503 C   0  0  0  0  0  0  0  0  0  0  0  0
  -34.4056   54.7024   89.3093 C   0  0  1  0  0  0  0  0  0  0  0  0
  -35.0651   53.4748   88.6401 C   0  0  0  0  0  0  0  0  0  0  0  0
  -34.6733   52.3348   88.8961 O   0  0  0  0  0  0  0  0  0  0  0  0
  -35.9756   53.7373   87.6907 N   0  0  0  0  0  0  0  0  0  0  0  0
  -36.4641   52.7515   86.7269 C   0  0  0  0  0  0  0  0  0  0  0  0
  -35.4903   52.4372   85.5857 C   0  0  0  0  0  0  0  0  0  0  0  0
  -35.6091   51.2247   84.9035 C   0  0  0  0  0  0  0  0  0  0  0  0
  -34.7597   50.9341   83.8386 C   0  0  0  0  0  0  0  0  0  0  0  0
  -34.4739   53.3309   85.2247 C   0  0  0  0  0  0  0  0  0  0  0  0
  -33.6232   53.0370   84.1669 C   0  0  0  0  0  0  0  0  0  0  0  0
  -33.7789   51.8497   83.4468 C   0  0  0  0  0  0  0  0  0  0  0  0
  -32.9389   51.5860   82.2401 C   0  0  0  0  0  0  0  0  0  0  0  0
  -31.2706   52.1046   82.1753 S   0  0  0  0  0  0  0  0  0  0  0  0
  -31.1948   51.5281   80.5554 C   0  0  0  0  0  0  0  0  0  0  0  0
  -32.2857   50.9682   80.1168 N   0  0  0  0  0  0  0  0  0  0  0  0
  -33.2561   50.9886   81.0106 C   0  0  0  0  0  0  0  0  0  0  0  0
  -34.5724   50.3970   80.5500 C   0  0  0  0  0  0  0  0  0  0  0  0
  1  2  1  0
  2  3  2  0
  2  4  1  0
  4  5  1  0
  4  9  1  0
  5  6  1  0
  6  7  1  1
  6  8  1  0
  8  9  1  0
  9 10  1  6
 10 11  2  0
 10 12  1  0
 12 13  1  0
 12 17  1  0
 13 14  1  0
 14 15  1  1
 14 16  1  0
 16 17  1  0
 17 18  1  6
 18 19  2  0
 18 20  1  0
 20 21  1  0
 21 22  1  0
 22 23  2  0
 22 25  1  0
 23 24  1  0
 24 27  2  0
 25 26  2  0
 26 27  1  0
 27 28  1  0
 28 29  1  0
 28 32  2  0
 29 30  1  0
 30 31  2  0
 31 32  1  0
 32 33  1  0
M  END
$$$$
