7UF2 - prepared_ligand
     RDKit          3D

 23 22  0  0  1  0  0  0  0  0999 V2000
   -2.3619   -5.0034   16.4467 O   0  0  0  0  0  0  0  0  0  0  0  0
   -3.5139   -4.8682   15.6373 C   0  0  0  0  0  0  0  0  0  0  0  0
   -3.1353   -4.7851   14.1500 C   0  0  0  0  0  0  0  0  0  0  0  0
   -1.9644   -4.8271   13.7600 O   0  0  0  0  0  0  0  0  0  0  0  0
   -4.3204   -4.5829   13.1871 C   0  0  2  0  0  0  0  0  0  0  0  0
   -5.2852   -5.8005   13.0911 C   0  0  1  0  0  0  0  0  0  0  0  0
   -6.7430   -5.3627   12.8478 C   0  0  0  0  0  0  0  0  0  0  0  0
   -6.8283   -4.1714   12.0911 O   0  0  0  0  0  0  0  0  0  0  0  0
   -7.0664   -4.1398   10.3606 P   0  0  0  0  0  0  0  0  0  0  0  0
   -6.8397   -5.5670    9.8302 O   0  0  0  0  0  0  0  0  0  0  0  0
   -6.0372   -3.1376    9.8161 O   0  0  0  0  0  0  0  0  0  0  0  0
   -8.5133   -3.6562   10.1880 O   0  0  0  0  0  0  0  0  0  0  0  0
   -3.8481   -4.1874   11.9029 O   0  0  0  0  0  0  0  0  0  0  0  0
   -4.8571   -6.7692   12.1479 O   0  0  0  0  0  0  0  0  0  0  0  0
   -2.2605   -5.9378   16.6663 H   0  0  0  0  0  0  0  0  0  0  0  0
   -4.0395   -3.9558   15.9204 H   0  0  0  0  0  0  0  0  0  0  0  0
   -4.1759   -5.7138   15.8195 H   0  0  0  0  0  0  0  0  0  0  0  0
   -4.8849   -3.7464   13.5968 H   0  0  0  0  0  0  0  0  0  0  0  0
   -5.2914   -6.3358   14.0405 H   0  0  0  0  0  0  0  0  0  0  0  0
   -7.1895   -5.1251   13.8118 H   0  0  0  0  0  0  0  0  0  0  0  0
   -7.3460   -6.1594   12.4221 H   0  0  0  0  0  0  0  0  0  0  0  0
   -4.6032   -3.9364   11.3592 H   0  0  0  0  0  0  0  0  0  0  0  0
   -4.0622   -7.1879   12.5033 H   0  0  0  0  0  0  0  0  0  0  0  0
  1  2  1  0
  1 15  1  0
  2  3  1  0
  2 16  1  0
  2 17  1  0
  3  4  2  0
  3  5  1  0
  5  6  1  0
  5 13  1  0
  5 18  1  1
  6  7  1  0
  6 14  1  0
  6 19  1  1
  7  8  1  0
  7 20  1  0
  7 21  1  0
  8  9  1  0
  9 10  2  0
  9 11  1  0
  9 12  1  0
 13 22  1  0
 14 23  1  0
M  CHG  2  11  -1  12  -1
M  END
$$$$
