2YKI_ligand
     RDKit          3D

 34 40  0  0  1  0  0  0  0  0999 V2000
   13.1530   14.5141   26.4007 C   0  0  0  0  0  0  0  0  0  0  0  0
   12.8660   14.7187   27.7035 N   0  0  0  0  0  0  0  0  0  0  0  0
   11.6166   14.7015   28.2133 C   0  0  0  0  0  0  0  0  0  0  0  0
    9.2029   14.4285   27.5619 N   0  0  0  0  0  0  0  0  0  0  0  0
   12.1470   14.2607   25.4637 C   0  0  0  0  0  0  0  0  0  0  0  0
    9.6019   14.0976   25.3913 N   0  0  0  0  0  0  0  0  0  0  0  0
    8.6611   14.2157   26.3832 C   0  0  0  0  0  0  0  0  0  0  0  0
    3.4331   11.6810   24.7932 N   0  0  0  0  0  0  0  0  0  0  0  0
   10.8402   14.2538   25.9603 C   0  0  0  0  0  0  0  0  0  0  0  0
   -1.1816   10.2732   26.4466 N   0  0  0  0  0  0  0  0  0  0  0  0
   10.5519   14.4688   27.3300 C   0  0  0  0  0  0  0  0  0  0  0  0
   -2.4342   11.3373   24.6684 N   0  0  0  0  0  0  0  0  0  0  0  0
    7.1941   14.2263   26.1123 C   0  0  0  0  0  0  0  0  0  0  0  0
    4.4378   14.5127   25.6723 C   0  0  0  0  0  0  0  0  0  0  0  0
    5.1030   15.4121   26.4933 C   0  0  0  0  0  0  0  0  0  0  0  0
    6.4651   15.2543   26.7258 C   0  0  0  0  0  0  0  0  0  0  0  0
    2.3500   11.3245   24.0774 C   0  0  0  0  0  0  0  0  0  0  0  0
    1.1210   10.9521   24.8617 C   0  0  0  0  0  0  0  0  0  0  0  0
    2.3127   11.3570   22.8477 O   0  0  0  0  0  0  0  0  0  0  0  0
    1.2260   10.2493   26.0748 C   0  0  0  0  0  0  0  0  0  0  0  0
    0.0826    9.9421   26.8123 C   0  0  0  0  0  0  0  0  0  0  0  0
    4.5932   12.3636   24.2185 C   0  0  1  0  0  0  0  0  0  0  0  0
    5.1373   13.4582   25.0891 C   0  0  0  0  0  0  0  0  0  0  0  0
    6.5146   13.3016   25.2908 C   0  0  0  0  0  0  0  0  0  0  0  0
    5.7952   11.4938   23.9797 C   0  0  0  0  0  0  0  0  0  0  0  0
    6.9307   12.0670   24.5605 C   0  0  0  0  0  0  0  0  0  0  0  0
    8.1646   11.4215   24.4032 C   0  0  0  0  0  0  0  0  0  0  0  0
    8.2528   10.2157   23.7097 C   0  0  0  0  0  0  0  0  0  0  0  0
    7.1069    9.6420   23.1655 C   0  0  0  0  0  0  0  0  0  0  0  0
    5.8769   10.2802   23.2965 C   0  0  0  0  0  0  0  0  0  0  0  0
   -0.1843   11.2917   24.4432 C   0  0  0  0  0  0  0  0  0  0  0  0
   -1.2749   10.9160   25.2808 C   0  0  0  0  0  0  0  0  0  0  0  0
   -2.1215   11.9772   23.4954 C   0  0  0  0  0  0  0  0  0  0  0  0
   -0.7551   11.9804   23.3194 C   0  0  0  0  0  0  0  0  0  0  0  0
  1  2  2  0
  1  5  1  0
  2  3  1  0
  3 11  2  0
  4  7  2  0
  4 11  1  0
  5  9  2  0
  6  7  1  0
  6  9  1  0
  7 13  1  0
  8 17  1  0
 22  8  1  1
  9 11  1  0
 10 21  2  0
 10 32  1  0
 12 32  1  0
 12 33  1  0
 13 16  2  0
 13 24  1  0
 14 15  2  0
 14 23  1  0
 15 16  1  0
 17 18  1  0
 17 19  2  0
 18 20  2  0
 18 31  1  0
 20 21  1  0
 22 23  1  0
 22 25  1  0
 23 24  2  0
 24 26  1  0
 25 26  2  0
 25 30  1  0
 26 27  1  0
 27 28  2  0
 28 29  1  0
 29 30  2  0
 31 32  2  0
 31 34  1  0
 33 34  2  0
M  CHG  1   2   1
M  END
$$$$
