8FV9 - prepared_ligand2
     RDKit          3D

 40 41  0  0  1  0  0  0  0  0999 V2000
   -9.1175   -4.4346  -11.1019 C   0  0  2  0  0  0  0  0  0  0  0  0
   -7.1532   -3.9139   -9.6658 C   0  0  0  0  0  0  0  0  0  0  0  0
   -9.3764   -5.6162  -12.0302 C   0  0  1  0  0  0  0  0  0  0  0  0
  -10.6401   -5.1499  -12.7545 C   0  0  1  0  0  0  0  0  0  0  0  0
   -6.7996   -5.1650   -7.6904 C   0  0  0  0  0  0  0  0  0  0  0  0
  -11.3534   -4.2484  -11.7307 C   0  0  1  0  0  0  0  0  0  0  0  0
   -7.9608   -5.9590   -7.9453 C   0  0  0  0  0  0  0  0  0  0  0  0
  -12.5706   -4.9074  -11.0668 C   0  0  0  0  0  0  0  0  0  0  0  0
   -8.6646   -5.6608   -9.0442 C   0  0  0  0  0  0  0  0  0  0  0  0
   -8.3403   -5.8064  -12.8518 F   0  0  0  0  0  0  0  0  0  0  0  0
   -8.2916   -4.6678   -9.9172 N   0  0  0  0  0  0  0  0  0  0  0  0
   -6.4625   -4.2000   -8.4690 N   0  0  0  0  0  0  0  0  0  0  0  0
   -6.0778   -5.4524   -6.6065 N   0  0  0  0  0  0  0  0  0  0  0  0
  -15.2551   -3.4343  -11.5563 O   0  0  0  0  0  0  0  0  0  0  0  0
  -15.7715   -7.9077   -9.3200 O   0  0  0  0  0  0  0  0  0  0  0  0
  -18.3458   -5.6810   -7.9907 O   0  0  0  0  0  0  0  0  0  0  0  0
   -6.7915   -3.0534  -10.4680 O   0  0  0  0  0  0  0  0  0  0  0  0
  -15.2107   -2.9414   -8.9449 O   0  0  0  0  0  0  0  0  0  0  0  0
  -13.5380   -6.7682   -8.4494 O   0  0  0  0  0  0  0  0  0  0  0  0
  -17.7465   -7.5616   -6.3556 O   0  0  0  0  0  0  0  0  0  0  0  0
  -10.4083   -4.5014  -13.9932 O   0  0  0  0  0  0  0  0  0  0  0  0
  -15.2930   -5.4038   -9.8257 O   0  0  0  0  0  0  0  0  0  0  0  0
  -15.8279   -6.1344   -7.3966 O   0  0  0  0  0  0  0  0  0  0  0  0
  -17.4763   -5.1187   -5.6475 O   0  0  0  0  0  0  0  0  0  0  0  0
  -10.3787   -3.9739  -10.7237 O   0  0  0  0  0  0  0  0  0  0  0  0
  -13.1377   -4.0219  -10.1122 O   0  0  0  0  0  0  0  0  0  0  0  0
  -14.8459   -3.7866  -10.1428 P   0  0  1  0  0  0  0  0  0  0  0  0
  -15.0148   -6.7196   -8.7721 P   0  0  1  0  0  0  0  0  0  0  0  0
  -17.4619   -6.1217   -6.8126 P   0  0  0  0  0  0  0  0  0  0  0  0
   -8.6705   -3.6303  -11.6856 H   0  0  0  0  0  0  0  0  0  0  0  0
   -9.5510   -6.5331  -11.4675 H   0  0  0  0  0  0  0  0  0  0  0  0
  -11.2488   -6.0271  -12.9798 H   0  0  0  0  0  0  0  0  0  0  0  0
  -11.6744   -3.3113  -12.1828 H   0  0  0  0  0  0  0  0  0  0  0  0
   -8.2881   -6.7493   -7.2848 H   0  0  0  0  0  0  0  0  0  0  0  0
  -12.2801   -5.8341  -10.5744 H   0  0  0  0  0  0  0  0  0  0  0  0
  -13.2934   -5.1825  -11.8367 H   0  0  0  0  0  0  0  0  0  0  0  0
   -9.5769   -6.1703   -9.3116 H   0  0  0  0  0  0  0  0  0  0  0  0
   -5.3042   -4.8609   -6.3416 H   0  0  0  0  0  0  0  0  0  0  0  0
   -6.2812   -6.2800   -6.0633 H   0  0  0  0  0  0  0  0  0  0  0  0
   -9.9461   -3.6695  -13.8345 H   0  0  0  0  0  0  0  0  0  0  0  0
  1  3  1  0
  1 11  1  0
  1 25  1  0
  1 30  1  6
  2 11  1  0
  2 12  1  0
  2 17  2  0
  3  4  1  0
  3 10  1  0
  3 31  1  1
  4  6  1  0
  4 21  1  0
  4 32  1  6
  5  7  1  0
  5 12  2  0
  5 13  1  0
  6  8  1  0
  6 25  1  0
  6 33  1  6
  7  9  2  0
  7 34  1  0
  8 26  1  0
  8 35  1  0
  8 36  1  0
  9 11  1  0
  9 37  1  0
 13 38  1  0
 13 39  1  0
 14 27  2  0
 15 28  2  0
 16 29  2  0
 27 18  1  1
 28 19  1  1
 20 29  1  0
 21 40  1  0
 22 27  1  0
 22 28  1  0
 23 28  1  0
 23 29  1  0
 24 29  1  0
 26 27  1  0
M  CHG  4  18  -1  19  -1  20  -1  24  -1
M  END
$$$$
