3COZ_ligand
     RDKit          3D

 30 32  0  0  1  0  0  0  0  0999 V2000
   -0.7282   -8.9096   39.5351 C   0  0  0  0  0  0  0  0  0  0  0  0
   -0.6016   -9.9073   40.4849 C   0  0  0  0  0  0  0  0  0  0  0  0
   -0.9059   -9.5611   41.8214 C   0  0  0  0  0  0  0  0  0  0  0  0
    0.0074  -10.7487   38.6650 C   0  0  0  0  0  0  0  0  0  0  0  0
   -1.3511   -8.3041   42.0811 N   0  0  0  0  0  0  0  0  0  0  0  0
   -1.1471   -7.6404   39.7667 N   0  0  0  0  0  0  0  0  0  0  0  0
    2.7673   -8.4705   30.6622 C   0  0  0  0  0  0  0  0  0  0  0  0
    2.9054   -9.9019   30.1032 C   0  0  0  0  0  0  0  0  0  0  0  0
    1.5206  -10.3769   29.6287 C   0  0  0  0  0  0  0  0  0  0  0  0
    3.5992  -10.9181   31.0725 C   0  0  1  0  0  0  0  0  0  0  0  0
    5.0444  -10.6081   31.3574 N   0  0  0  0  0  0  0  0  0  0  0  0
    2.8468  -11.0886   32.4369 C   0  0  0  0  0  0  0  0  0  0  0  0
    3.2702  -10.4822   33.4308 O   0  0  0  0  0  0  0  0  0  0  0  0
    1.8606  -11.9526   32.4392 N   0  0  0  0  0  0  0  0  0  0  0  0
    1.2381  -12.5248   33.7686 S   0  0  0  0  0  0  0  0  0  0  0  0
    2.2227  -13.1642   34.6490 O   0  0  0  0  0  0  0  0  0  0  0  0
   -0.0013  -13.2713   33.5247 O   0  0  0  0  0  0  0  0  0  0  0  0
    0.7632  -11.1319   34.5709 O   0  0  0  0  0  0  0  0  0  0  0  0
   -0.1116  -10.2169   33.9254 C   0  0  0  0  0  0  0  0  0  0  0  0
   -0.2586   -8.9455   34.7729 C   0  0  1  0  0  0  0  0  0  0  0  0
   -0.8443   -9.2651   36.0334 O   0  0  0  0  0  0  0  0  0  0  0  0
    1.0707   -8.2506   35.1148 C   0  0  1  0  0  0  0  0  0  0  0  0
    0.9932   -6.8455   34.9474 O   0  0  0  0  0  0  0  0  0  0  0  0
    1.3481   -8.6865   36.5524 C   0  0  1  0  0  0  0  0  0  0  0  0
    2.1551   -7.8256   37.3379 O   0  0  0  0  0  0  0  0  0  0  0  0
   -0.0826   -8.7276   37.0691 C   0  0  2  0  0  0  0  0  0  0  0  0
   -0.3067   -9.4724   38.3650 N   0  0  0  0  0  0  0  0  0  0  0  0
   -0.1698  -11.0511   39.9275 N   0  0  0  0  0  0  0  0  0  0  0  0
   -1.4465   -7.4462   41.0580 C   0  0  0  0  0  0  0  0  0  0  0  0
   -0.7575  -10.4345   42.8918 N   0  0  0  0  0  0  0  0  0  0  0  0
  1  2  1  0
  1  6  2  0
  1 27  1  0
  2  3  2  0
  2 28  1  0
  3  5  1  0
  3 30  1  0
  4 27  1  0
  4 28  2  0
  5 29  2  0
  6 29  1  0
  7  8  1  0
  8  9  1  0
  8 10  1  0
 10 11  1  1
 10 12  1  0
 12 13  2  0
 12 14  1  0
 14 15  1  0
 15 16  2  0
 15 17  2  0
 15 18  1  0
 18 19  1  0
 20 19  1  6
 20 21  1  0
 20 22  1  0
 21 26  1  0
 22 23  1  1
 22 24  1  0
 24 25  1  1
 24 26  1  0
 26 27  1  1
M  CHG  2  11   1  14  -1
M  END
$$$$
