6Z2C - prepared_ligand3
     RDKit          3D

 38 40  0  0  1  0  0  0  0  0999 V2000
  -48.3209    4.4992   20.4417 O   0  0  0  0  0  0  0  0  0  0  0  0
  -48.3396    4.2473   21.6445 C   0  0  0  0  0  0  0  0  0  0  0  0
  -47.0909    4.1171   22.5135 C   0  0  1  0  0  0  0  0  0  0  0  0
  -46.2607    5.4218   22.7966 C   0  0  1  0  0  0  0  0  0  0  0  0
  -45.6396    5.1641   24.1809 C   0  0  0  0  0  0  0  0  0  0  0  0
  -44.6092    3.6889   24.2445 Cl  0  0  0  0  0  0  0  0  0  0  0  0
  -44.7605    6.5710   24.8877 Cl  0  0  0  0  0  0  0  0  0  0  0  0
  -45.0550    5.8143   21.5398 Cl  0  0  0  0  0  0  0  0  0  0  0  0
  -47.1857    6.5964   23.1452 C   0  0  0  0  0  0  0  0  0  0  0  0
  -47.5716    7.9500   22.0739 Cl  0  0  0  0  0  0  0  0  0  0  0  0
  -47.6910    6.3016   24.3626 C   0  0  0  0  0  0  0  0  0  0  0  0
  -48.9359    7.1623   25.2755 Cl  0  0  0  0  0  0  0  0  0  0  0  0
  -47.0505    4.9566   24.7551 C   0  0  2  0  0  0  0  0  0  0  0  0
  -47.0499    4.6236   26.5060 Cl  0  0  0  0  0  0  0  0  0  0  0  0
  -47.6275    3.7829   23.8962 C   0  0  1  0  0  0  0  0  0  0  0  0
  -49.1401    3.7257   23.7323 C   0  0  0  0  0  0  0  0  0  0  0  0
  -49.9287    3.4377   24.6313 O   0  0  0  0  0  0  0  0  0  0  0  0
  -49.4209    3.9924   22.4334 N   0  0  0  0  0  0  0  0  0  0  0  0
  -50.8016    3.9670   21.9237 C   0  0  0  0  0  0  0  0  0  0  0  0
  -51.6160    5.2588   22.1565 C   0  0  0  0  0  0  0  0  0  0  0  0
  -50.9287    6.5416   21.6506 C   0  0  0  0  0  0  0  0  0  0  0  0
  -51.8707    7.7379   21.4350 C   0  0  0  0  0  0  0  0  0  0  0  0
  -52.4807    8.3260   22.7282 C   0  0  0  0  0  0  0  0  0  0  0  0
  -53.3062    9.5967   22.4308 C   0  0  0  0  0  0  0  0  0  0  0  0
  -54.5184    9.5833   22.7436 O   0  0  0  0  0  0  0  0  0  0  0  0
  -52.7194   10.5713   21.9047 O   0  0  0  0  0  0  0  0  0  0  0  0
  -46.4652    3.3091   22.1368 H   0  0  0  0  0  0  0  0  0  0  0  0
  -47.2604    2.8134   24.2306 H   0  0  0  0  0  0  0  0  0  0  0  0
  -51.3326    3.1225   22.3647 H   0  0  0  0  0  0  0  0  0  0  0  0
  -50.7649    3.7673   20.8548 H   0  0  0  0  0  0  0  0  0  0  0  0
  -51.8572    5.3575   23.2156 H   0  0  0  0  0  0  0  0  0  0  0  0
  -52.5753    5.1395   21.6518 H   0  0  0  0  0  0  0  0  0  0  0  0
  -50.4325    6.3340   20.7025 H   0  0  0  0  0  0  0  0  0  0  0  0
  -50.1382    6.8218   22.3449 H   0  0  0  0  0  0  0  0  0  0  0  0
  -52.6799    7.4434   20.7686 H   0  0  0  0  0  0  0  0  0  0  0  0
  -51.3022    8.5041   20.9036 H   0  0  0  0  0  0  0  0  0  0  0  0
  -51.6873    8.5866   23.4310 H   0  0  0  0  0  0  0  0  0  0  0  0
  -53.0925    7.5701   23.2257 H   0  0  0  0  0  0  0  0  0  0  0  0
  1  2  2  0
  2  3  1  0
  2 18  1  0
  3  4  1  0
  3 15  1  0
  3 27  1  6
  4  5  1  0
  4  8  1  6
  4  9  1  0
  5  6  1  0
  5  7  1  0
  5 13  1  0
  9 10  1  0
  9 11  2  0
 11 12  1  0
 11 13  1  0
 13 14  1  1
 13 15  1  0
 15 16  1  0
 15 28  1  1
 16 17  2  0
 16 18  1  0
 18 19  1  0
 19 20  1  0
 19 29  1  0
 19 30  1  0
 20 21  1  0
 20 31  1  0
 20 32  1  0
 21 22  1  0
 21 33  1  0
 21 34  1  0
 22 23  1  0
 22 35  1  0
 22 36  1  0
 23 24  1  0
 23 37  1  0
 23 38  1  0
 24 25  1  0
 24 26  2  0
M  CHG  1  25  -1
M  END
$$$$
