2IWX_ligand
     RDKit          3D

 24 25  0  0  1  0  0  0  0  0999 V2000
   55.2383   75.9083   -5.8882 C   0  0  0  0  0  0  0  0  0  0  0  0
   55.2483   76.8144   -4.6758 C   0  0  0  0  0  0  0  0  0  0  0  0
   54.3495   77.9012   -4.6199 C   0  0  0  0  0  0  0  0  0  0  0  0
   54.3349   78.7661   -3.5344 C   0  0  0  0  0  0  0  0  0  0  0  0
   55.2039   78.5791   -2.4657 C   0  0  0  0  0  0  0  0  0  0  0  0
   56.0934   77.4902   -2.4728 C   0  0  0  0  0  0  0  0  0  0  0  0
   56.1110   76.5992   -3.5657 C   0  0  0  0  0  0  0  0  0  0  0  0
   57.0261   75.3632   -3.4728 C   0  0  0  0  0  0  0  0  0  0  0  0
   58.4604   75.5929   -3.9772 C   0  0  0  0  0  0  0  0  0  0  0  0
   58.9218   77.0025   -4.3927 C   0  0  0  0  0  0  0  0  0  0  0  0
   60.3551   77.0326   -4.9647 C   0  0  0  0  0  0  0  0  0  0  0  0
   60.8610   78.4333   -5.3402 C   0  0  0  0  0  0  0  0  0  0  0  0
   60.0846   79.1446   -6.4654 C   0  0  0  0  0  0  0  0  0  0  0  0
   60.0335   78.3827   -7.8084 C   0  0  0  0  0  0  0  0  0  0  0  0
   58.7172   77.6755   -8.0729 C   0  0  0  0  0  0  0  0  0  0  0  0
   58.5726   76.3516   -8.2477 C   0  0  0  0  0  0  0  0  0  0  0  0
   57.2583   75.6592   -8.5583 C   0  0  0  0  0  0  0  0  0  0  0  0
   56.7401   74.7566   -7.4289 C   0  0  0  0  0  0  0  0  0  0  0  0
   54.2282   75.6361   -6.5400 O   0  0  0  0  0  0  0  0  0  0  0  0
   53.4633   78.1867   -5.6244 O   0  0  0  0  0  0  0  0  0  0  0  0
   55.1634   79.4250   -1.5123 O   0  0  0  0  0  0  0  0  0  0  0  0
   57.1910   77.2269   -1.1423 Cl  0  0  0  0  0  0  0  0  0  0  0  0
   59.2171   74.6280   -4.0568 O   0  0  0  0  0  0  0  0  0  0  0  0
   56.4826   75.5280   -6.2601 O   0  0  0  0  0  0  0  0  0  0  0  0
  1  2  1  0
  1 19  2  0
  1 24  1  0
  2  3  2  0
  2  7  1  0
  3  4  1  0
  3 20  1  0
  4  5  2  0
  5  6  1  0
  5 21  1  0
  6  7  2  0
  6 22  1  0
  7  8  1  0
  8  9  1  0
  9 10  1  0
  9 23  2  0
 10 11  1  0
 11 12  1  0
 12 13  1  0
 13 14  1  0
 14 15  1  0
 15 16  2  0
 16 17  1  0
 17 18  1  0
 18 24  1  0
M  CHG  1  21  -1
M  END
$$$$
