6XBO - prepared_ligand2
     RDKit          3D

 36 37  0  0  1  0  0  0  0  0999 V2000
   14.4128  -15.8213    9.2592 P   0  0  0  0  0  0  0  0  0  0  0  0
   13.9220  -15.0988    7.9927 O   0  0  0  0  0  0  0  0  0  0  0  0
   15.4829  -16.8888    8.9697 O   0  0  0  0  0  0  0  0  0  0  0  0
   13.2687  -16.3548   10.1340 O   0  0  0  0  0  0  0  0  0  0  0  0
   15.1926  -14.5992   10.2293 O   0  0  0  0  0  0  0  0  0  0  0  0
   16.3419  -13.9462    9.7449 C   0  0  0  0  0  0  0  0  0  0  0  0
   16.6448  -12.7254   10.6177 C   0  0  1  0  0  0  0  0  0  0  0  0
   17.8260  -12.1343   10.0955 O   0  0  0  0  0  0  0  0  0  0  0  0
   15.5777  -11.6196   10.5669 C   0  0  1  0  0  0  0  0  0  0  0  0
   15.2401  -11.1537   11.8632 O   0  0  0  0  0  0  0  0  0  0  0  0
   16.1920  -10.5526    9.6574 C   0  0  1  0  0  0  0  0  0  0  0  0
   15.8198   -9.2063    9.8893 O   0  0  0  0  0  0  0  0  0  0  0  0
   17.6765  -10.7606    9.9308 C   0  0  2  0  0  0  0  0  0  0  0  0
   18.6274  -10.2687    8.9310 N   0  0  0  0  0  0  0  0  0  0  0  0
   19.5568   -9.2893    9.2419 C   0  0  0  0  0  0  0  0  0  0  0  0
   19.5370   -8.7482   10.3455 O   0  0  0  0  0  0  0  0  0  0  0  0
   20.4967   -8.9758    8.2438 N   0  0  0  0  0  0  0  0  0  0  0  0
   20.5397   -9.5782    7.1108 C   0  0  0  0  0  0  0  0  0  0  0  0
   21.4621   -9.2105    6.2142 N   0  0  0  0  0  0  0  0  0  0  0  0
   19.6073  -10.6268    6.7688 C   0  0  0  0  0  0  0  0  0  0  0  0
   18.6917  -10.9070    7.7147 C   0  0  0  0  0  0  0  0  0  0  0  0
   19.6635  -11.3909    5.4566 C   0  0  0  0  0  0  0  0  0  0  0  0
   16.2034  -13.6479    8.7040 H   0  0  0  0  0  0  0  0  0  0  0  0
   17.1721  -14.6478    9.7785 H   0  0  0  0  0  0  0  0  0  0  0  0
   16.8393  -13.0548   11.6402 H   0  0  0  0  0  0  0  0  0  0  0  0
   14.6583  -11.9924   10.1102 H   0  0  0  0  0  0  0  0  0  0  0  0
   14.4046  -10.6760   11.8038 H   0  0  0  0  0  0  0  0  0  0  0  0
   16.0160  -10.8227    8.6206 H   0  0  0  0  0  0  0  0  0  0  0  0
   16.0602   -8.9869   10.7931 H   0  0  0  0  0  0  0  0  0  0  0  0
   17.9274  -10.3193   10.8968 H   0  0  0  0  0  0  0  0  0  0  0  0
   21.4966   -9.6420    5.3020 H   0  0  0  0  0  0  0  0  0  0  0  0
   22.1272   -8.4827    6.4388 H   0  0  0  0  0  0  0  0  0  0  0  0
   17.9445  -11.6792    7.5965 H   0  0  0  0  0  0  0  0  0  0  0  0
   18.9573  -12.2164    5.4451 H   0  0  0  0  0  0  0  0  0  0  0  0
   19.4147  -10.7285    4.6282 H   0  0  0  0  0  0  0  0  0  0  0  0
   20.6599  -11.8027    5.2917 H   0  0  0  0  0  0  0  0  0  0  0  0
  1  2  2  0
  1  3  1  0
  1  4  1  0
  1  5  1  0
  5  6  1  0
  6  7  1  0
  6 23  1  0
  6 24  1  0
  7  8  1  0
  7  9  1  0
  7 25  1  1
  8 13  1  0
  9 10  1  0
  9 11  1  0
  9 26  1  6
 10 27  1  0
 11 12  1  0
 11 13  1  0
 11 28  1  6
 12 29  1  0
 13 14  1  0
 13 30  1  1
 14 15  1  0
 14 21  1  0
 15 16  2  0
 15 17  1  0
 17 18  2  0
 18 19  1  0
 18 20  1  0
 19 31  1  0
 19 32  1  0
 20 21  2  0
 20 22  1  0
 21 33  1  0
 22 34  1  0
 22 35  1  0
 22 36  1  0
M  CHG  2   3  -1   4  -1
M  END
$$$$
