2ZY1_ligand
     RDKit          3D

 24 25  0  0  1  0  0  0  0  0999 V2000
   12.9355   57.9566   36.8711 C   0  0  0  0  0  0  0  0  0  0  0  0
   11.9104   58.7102   36.3082 C   0  0  0  0  0  0  0  0  0  0  0  0
   11.5453   59.9231   36.8855 C   0  0  0  0  0  0  0  0  0  0  0  0
   12.2016   60.3911   38.0212 C   0  0  0  0  0  0  0  0  0  0  0  0
   13.2372   59.6431   38.5760 C   0  0  0  0  0  0  0  0  0  0  0  0
   13.6144   58.4255   38.0079 C   0  0  0  0  0  0  0  0  0  0  0  0
   14.6446   57.7409   38.6240 O   0  0  0  0  0  0  0  0  0  0  0  0
   15.2057   56.6375   38.0271 C   0  0  0  0  0  0  0  0  0  0  0  0
   16.0944   56.7783   36.9556 C   0  0  0  0  0  0  0  0  0  0  0  0
   14.8878   55.3641   38.5008 C   0  0  0  0  0  0  0  0  0  0  0  0
   15.4261   54.2355   37.8848 C   0  0  0  0  0  0  0  0  0  0  0  0
   16.2908   54.3790   36.8016 C   0  0  0  0  0  0  0  0  0  0  0  0
   16.6534   55.6510   36.3477 C   0  0  0  0  0  0  0  0  0  0  0  0
   17.6460   55.8048   35.2015 C   0  0  0  0  0  0  0  0  0  0  0  0
   19.1079   56.0377   35.6440 C   0  0  0  0  0  0  0  0  0  0  0  0
   19.7259   54.9376   36.5267 C   0  0  0  0  0  0  0  0  0  0  0  0
   19.6055   53.5940   35.9543 N   0  0  0  0  0  0  0  0  0  0  0  0
   19.2541   52.4894   36.6330 C   0  0  0  0  0  0  0  0  0  0  0  0
   19.0179   52.4822   37.8415 O   0  0  0  0  0  0  0  0  0  0  0  0
   19.1236   51.1954   35.8377 C   0  0  0  0  0  0  0  0  0  0  0  0
   20.6798   50.2425   35.4612 P   0  0  1  0  0  0  0  0  0  0  0  0
   21.2672   51.2745   34.2396 O   0  0  0  0  0  0  0  0  0  0  0  0
   21.6267   50.3377   36.6381 O   0  0  0  0  0  0  0  0  0  0  0  0
   20.3051   48.9274   34.8197 O   0  0  0  0  0  0  0  0  0  0  0  0
  1  2  2  0
  1  6  1  0
  2  3  1  0
  3  4  2  0
  4  5  1  0
  5  6  2  0
  6  7  1  0
  7  8  1  0
  8  9  2  0
  8 10  1  0
  9 13  1  0
 10 11  2  0
 11 12  1  0
 12 13  2  0
 13 14  1  0
 14 15  1  0
 15 16  1  0
 16 17  1  0
 17 18  1  0
 18 19  2  0
 18 20  1  0
 20 21  1  0
 21 22  1  6
 21 23  1  0
 21 24  2  0
M  CHG  1  23  -1
M  END
$$$$
