4X6P_ligand
     RDKit          3D

 40 45  0  0  1  0  0  0  0  0999 V2000
   16.1236   31.0211  -76.2587 N   0  0  0  0  0  0  0  0  0  0  0  0
   15.1454   31.6650  -76.9666 C   0  0  0  0  0  0  0  0  0  0  0  0
   12.9269   35.0111  -75.4700 C   0  0  0  0  0  0  0  0  0  0  0  0
   12.5133   34.3264  -76.6395 C   0  0  0  0  0  0  0  0  0  0  0  0
   13.1931   33.2095  -77.1359 C   0  0  0  0  0  0  0  0  0  0  0  0
   14.3313   32.7929  -76.4354 C   0  0  0  0  0  0  0  0  0  0  0  0
   14.0428   34.5417  -74.7634 C   0  0  0  0  0  0  0  0  0  0  0  0
   14.7326   33.4426  -75.2630 C   0  0  0  0  0  0  0  0  0  0  0  0
   15.4280   21.5318  -77.3655 C   0  0  0  0  0  0  0  0  0  0  0  0
   15.8914   20.8384  -76.2518 C   0  0  0  0  0  0  0  0  0  0  0  0
   16.6423   21.4971  -75.2842 C   0  0  0  0  0  0  0  0  0  0  0  0
   16.9054   22.8586  -75.4212 C   0  0  0  0  0  0  0  0  0  0  0  0
   15.1904   31.0180  -78.1993 C   0  0  0  0  0  0  0  0  0  0  0  0
   15.1976   23.0544  -79.9878 C   0  0  0  0  0  0  0  0  0  0  0  0
   17.5747   27.8104  -76.5767 N   0  0  0  0  0  0  0  0  0  0  0  0
   17.8825   29.2467  -76.6547 C   0  0  2  0  0  0  0  0  0  0  0  0
   16.6781   30.0778  -77.0749 C   0  0  0  0  0  0  0  0  0  0  0  0
   19.1117   29.5701  -77.5378 C   0  0  0  0  0  0  0  0  0  0  0  0
   19.7071   30.9785  -77.3662 C   0  0  0  0  0  0  0  0  0  0  0  0
   20.4608   31.5138  -78.4151 C   0  0  0  0  0  0  0  0  0  0  0  0
   21.0667   32.7614  -78.2857 C   0  0  0  0  0  0  0  0  0  0  0  0
   20.9263   33.4796  -77.1015 C   0  0  0  0  0  0  0  0  0  0  0  0
   20.1737   32.9659  -76.0504 C   0  0  0  0  0  0  0  0  0  0  0  0
   19.5637   31.7222  -76.1816 C   0  0  0  0  0  0  0  0  0  0  0  0
   16.1028   30.0615  -78.2534 N   0  0  0  0  0  0  0  0  0  0  0  0
   16.4445   23.5763  -76.5358 C   0  0  0  0  0  0  0  0  0  0  0  0
   15.7009   22.8959  -77.5273 C   0  0  0  0  0  0  0  0  0  0  0  0
   15.2141   23.5318  -78.6977 N   0  0  0  0  0  0  0  0  0  0  0  0
   17.2639   20.6220  -73.9325 Cl  0  0  0  0  0  0  0  0  0  0  0  0
   16.7108   25.0266  -76.6223 C   0  0  0  0  0  0  0  0  0  0  0  0
   16.6156   25.8600  -75.5700 C   0  0  0  0  0  0  0  0  0  0  0  0
   16.7731   27.2906  -75.6204 C   0  0  0  0  0  0  0  0  0  0  0  0
   16.2000   27.9888  -74.7857 O   0  0  0  0  0  0  0  0  0  0  0  0
   14.6810   23.9274  -80.8128 N   0  0  0  0  0  0  0  0  0  0  0  0
   14.3483   25.0170  -80.0182 N   0  0  0  0  0  0  0  0  0  0  0  0
   14.6564   24.7535  -78.6976 N   0  0  0  0  0  0  0  0  0  0  0  0
   11.3966   35.0053  -77.0839 N   0  0  0  0  0  0  0  0  0  0  0  0
   11.1055   36.0640  -76.3042 N   0  0  0  0  0  0  0  0  0  0  0  0
   11.9921   36.0847  -75.3427 C   0  0  0  0  0  0  0  0  0  0  0  0
   11.9957   37.0201  -74.3483 N   0  0  0  0  0  0  0  0  0  0  0  0
  1  2  1  0
  1 17  1  0
  2  6  1  0
  2 13  2  0
  3  4  1  0
  3  7  2  0
  3 39  1  0
  4  5  2  0
  4 37  1  0
  5  6  1  0
  6  8  2  0
  7  8  1  0
  9 10  2  0
  9 27  1  0
 10 11  1  0
 11 12  2  0
 11 29  1  0
 12 26  1  0
 13 25  1  0
 14 28  1  0
 14 34  2  0
 15 16  1  0
 15 32  1  0
 16 17  1  0
 16 18  1  6
 17 25  2  0
 18 19  1  0
 19 20  2  0
 19 24  1  0
 20 21  1  0
 21 22  2  0
 22 23  1  0
 23 24  2  0
 26 27  2  0
 26 30  1  0
 27 28  1  0
 28 36  1  0
 30 31  2  0
 31 32  1  0
 32 33  2  0
 34 35  1  0
 35 36  2  0
 37 38  1  0
 38 39  2  0
 39 40  1  0
M  END
$$$$
