4GFM_ligand
     RDKit          3D

 18 19  0  0  1  0  0  0  0  0999 V2000
   31.3242  -14.4395    3.8499 C   0  0  0  0  0  0  0  0  0  0  0  0
   30.9970  -15.3215    2.7979 C   0  0  0  0  0  0  0  0  0  0  0  0
   30.5535  -16.6115    3.0850 C   0  0  0  0  0  0  0  0  0  0  0  0
   34.2401   -9.6153    1.9729 C   0  0  0  0  0  0  0  0  0  0  0  0
   31.8302  -13.0534    3.5627 C   0  0  0  0  0  0  0  0  0  0  0  0
   33.8024  -11.9847    2.5373 C   0  0  0  0  0  0  0  0  0  0  0  0
   35.0720  -12.4203    1.8118 C   0  0  0  0  0  0  0  0  0  0  0  0
   35.7280  -11.2362    1.1100 C   0  0  0  0  0  0  0  0  0  0  0  0
   33.4634  -10.6714    2.6080 C   0  0  0  0  0  0  0  0  0  0  0  0
   33.0673  -13.0321    3.0238 N   0  0  0  0  0  0  0  0  0  0  0  0
   35.3157  -10.0263    1.1759 N   0  0  0  0  0  0  0  0  0  0  0  0
   31.1635  -14.8759    5.1791 C   0  0  0  0  0  0  0  0  0  0  0  0
   33.8790   -8.4603    2.1879 O   0  0  0  0  0  0  0  0  0  0  0  0
   31.1064  -12.0810    3.7795 O   0  0  0  0  0  0  0  0  0  0  0  0
   31.5023  -13.8573    6.5358 Cl  0  0  0  0  0  0  0  0  0  0  0  0
   30.7109  -16.1669    5.4413 C   0  0  0  0  0  0  0  0  0  0  0  0
   31.1028  -14.8604    1.1290 Cl  0  0  0  0  0  0  0  0  0  0  0  0
   30.4110  -17.0380    4.3996 C   0  0  0  0  0  0  0  0  0  0  0  0
  1  2  2  0
  1  5  1  0
  1 12  1  0
  2  3  1  0
  2 17  1  0
  3 18  2  0
  4  9  1  0
  4 11  1  0
  4 13  2  0
  5 10  1  0
  5 14  2  0
  6  7  1  0
  6  9  2  0
  6 10  1  0
  7  8  1  0
  8 11  2  0
 12 15  1  0
 12 16  2  0
 16 18  1  0
M  END
$$$$
