7VB8 - prepared_ligand3
     RDKit          3D

 29 30  0  0  1  0  0  0  0  0999 V2000
  -16.2785   30.5407   -5.6502 C   0  0  0  0  0  0  0  0  0  0  0  0
  -16.1377   29.1551   -5.6646 C   0  0  0  0  0  0  0  0  0  0  0  0
  -15.1509   28.5681   -6.4546 C   0  0  0  0  0  0  0  0  0  0  0  0
  -14.3127   29.3646   -7.2370 C   0  0  0  0  0  0  0  0  0  0  0  0
  -14.4619   30.7604   -7.2423 C   0  0  0  0  0  0  0  0  0  0  0  0
  -15.4517   31.3348   -6.4393 C   0  0  0  0  0  0  0  0  0  0  0  0
  -13.6282   31.6603   -8.0577 C   0  0  0  0  0  0  0  0  0  0  0  0
  -12.6730   31.3051   -8.9398 C   0  0  0  0  0  0  0  0  0  0  0  0
  -11.8457   32.2278   -9.7409 C   0  0  0  0  0  0  0  0  0  0  0  0
  -11.7881   33.6034   -9.4831 C   0  0  0  0  0  0  0  0  0  0  0  0
  -10.9964   34.4394  -10.2620 C   0  0  0  0  0  0  0  0  0  0  0  0
  -10.2696   33.9014  -11.3160 C   0  0  0  0  0  0  0  0  0  0  0  0
  -10.3377   32.5408  -11.6006 C   0  0  0  0  0  0  0  0  0  0  0  0
  -11.1188   31.7056  -10.8105 C   0  0  0  0  0  0  0  0  0  0  0  0
   -9.4712   34.7107  -12.0733 O   0  0  0  0  0  0  0  0  0  0  0  0
  -15.0046   27.2079   -6.4589 O   0  0  0  0  0  0  0  0  0  0  0  0
  -17.2242   31.1317   -4.8631 O   0  0  0  0  0  0  0  0  0  0  0  0
  -16.7855   28.5376   -5.0585 H   0  0  0  0  0  0  0  0  0  0  0  0
  -13.5587   28.8846   -7.8412 H   0  0  0  0  0  0  0  0  0  0  0  0
  -15.5836   32.4064   -6.4219 H   0  0  0  0  0  0  0  0  0  0  0  0
  -13.8299   32.7111   -7.9152 H   0  0  0  0  0  0  0  0  0  0  0  0
  -12.4663   30.2561   -9.0886 H   0  0  0  0  0  0  0  0  0  0  0  0
  -12.3549   34.0406   -8.6829 H   0  0  0  0  0  0  0  0  0  0  0  0
  -10.9486   35.4964  -10.0422 H   0  0  0  0  0  0  0  0  0  0  0  0
   -9.7754   32.1191  -12.4188 H   0  0  0  0  0  0  0  0  0  0  0  0
  -11.1514   30.6495  -11.0338 H   0  0  0  0  0  0  0  0  0  0  0  0
   -9.0081   34.2177  -12.7600 H   0  0  0  0  0  0  0  0  0  0  0  0
  -14.1963   26.9144   -6.8937 H   0  0  0  0  0  0  0  0  0  0  0  0
  -17.8225   30.4932   -4.4619 H   0  0  0  0  0  0  0  0  0  0  0  0
  1  2  2  0
  1  6  1  0
  1 17  1  0
  2  3  1  0
  2 18  1  0
  3  4  2  0
  3 16  1  0
  4  5  1  0
  4 19  1  0
  5  6  2  0
  5  7  1  0
  6 20  1  0
  7  8  2  0
  7 21  1  0
  8  9  1  0
  8 22  1  0
  9 10  2  0
  9 14  1  0
 10 11  1  0
 10 23  1  0
 11 12  2  0
 11 24  1  0
 12 13  1  0
 12 15  1  0
 13 14  2  0
 13 25  1  0
 14 26  1  0
 15 27  1  0
 16 28  1  0
 17 29  1  0
M  END
$$$$
