1QKT_ligand
     RDKit          3D

 20 23  0  0  1  0  0  0  0  0999 V2000
    0.8088   53.0648  165.1154 C   0  0  0  0  0  0  0  0  0  0  0  0
    2.1903   53.1186  165.0104 C   0  0  0  0  0  0  0  0  0  0  0  0
    2.9386   51.9561  165.1368 C   0  0  0  0  0  0  0  0  0  0  0  0
    4.2962   51.9975  164.9782 O   0  0  0  0  0  0  0  0  0  0  0  0
    2.2970   50.7527  165.4099 C   0  0  0  0  0  0  0  0  0  0  0  0
    0.9031   50.6794  165.5162 C   0  0  0  0  0  0  0  0  0  0  0  0
    0.2436   49.3233  165.7748 C   0  0  0  0  0  0  0  0  0  0  0  0
   -1.1953   49.4674  166.2933 C   0  0  0  0  0  0  0  0  0  0  0  0
   -1.9806   50.4002  165.3571 C   0  0  2  0  0  0  0  0  0  0  0  0
   -1.4015   51.8417  165.4890 C   0  0  1  0  0  0  0  0  0  0  0  0
    0.1329   51.8598  165.3463 C   0  0  0  0  0  0  0  0  0  0  0  0
   -2.1700   52.8578  164.5909 C   0  0  0  0  0  0  0  0  0  0  0  0
   -3.6983   52.7867  164.8215 C   0  0  0  0  0  0  0  0  0  0  0  0
   -4.2540   51.3583  164.6223 C   0  0  1  0  0  0  0  0  0  0  0  0
   -3.5071   50.4460  165.6278 C   0  0  1  0  0  0  0  0  0  0  0  0
   -4.3306   49.1554  165.6646 C   0  0  0  0  0  0  0  0  0  0  0  0
   -5.7853   49.6373  165.4767 C   0  0  0  0  0  0  0  0  0  0  0  0
   -5.7085   51.1347  165.1078 C   0  0  2  0  0  0  0  0  0  0  0  0
   -6.7725   51.6042  164.3017 O   0  0  0  0  0  0  0  0  0  0  0  0
   -4.1332   50.9363  163.1247 C   0  0  0  0  0  0  0  0  0  0  0  0
  1  2  2  0
  1 11  1  0
  2  3  1  0
  3  4  1  0
  3  5  2  0
  5  6  1  0
  6  7  1  0
  6 11  2  0
  7  8  1  0
  9  8  1  1
  9 10  1  0
  9 15  1  0
 10 11  1  0
 10 12  1  6
 12 13  1  0
 13 14  1  0
 14 15  1  0
 14 18  1  0
 14 20  1  6
 15 16  1  6
 16 17  1  0
 17 18  1  0
 18 19  1  6
M  END
$$$$
