2Y5H_ligand
     RDKit          3D

 31 35  0  0  1  0  0  0  0  0999 V2000
   -0.5698    5.9199   27.5737 Cl  0  0  0  0  0  0  0  0  0  0  0  0
   -1.3171    7.4541   27.3752 C   0  0  0  0  0  0  0  0  0  0  0  0
   -2.3501    7.9950   28.1191 C   0  0  0  0  0  0  0  0  0  0  0  0
   -2.7785    9.2329   27.6308 C   0  0  0  0  0  0  0  0  0  0  0  0
   -0.8190    8.5251   26.1077 S   0  0  0  0  0  0  0  0  0  0  0  0
   -2.1000    9.6478   26.4870 C   0  0  0  0  0  0  0  0  0  0  0  0
   -2.3858   10.8017   25.6392 C   0  0  0  0  0  0  0  0  0  0  0  0
   -1.7954   11.1239   24.5105 N   0  0  0  0  0  0  0  0  0  0  0  0
   -3.4418   11.5950   25.9483 O   0  0  0  0  0  0  0  0  0  0  0  0
   -3.5257   12.4392   24.8925 C   0  0  0  0  0  0  0  0  0  0  0  0
   -2.5273   12.0958   23.9890 C   0  0  0  0  0  0  0  0  0  0  0  0
   -2.2223   12.6016   22.5795 C   0  0  2  0  0  0  0  0  0  0  0  0
   -3.0861   13.7996   22.1276 N   0  0  2  0  0  0  0  0  0  0  0  0
   -2.9451   13.8296   20.5967 C   0  0  1  0  0  0  0  0  0  0  0  0
   -1.8649   14.8815   20.3457 C   0  0  0  0  0  0  0  0  0  0  0  0
   -2.1571   15.9490   21.3943 C   0  0  0  0  0  0  0  0  0  0  0  0
   -2.6791   15.1994   22.6301 C   0  0  0  0  0  0  0  0  0  0  0  0
   -2.6199   12.3834   20.1599 C   0  0  1  0  0  0  0  0  0  0  0  0
   -2.3320   11.5859   21.4067 C   0  0  2  0  0  0  0  0  0  0  0  0
   -3.4926   10.5952   21.4995 C   0  0  0  0  0  0  0  0  0  0  0  0
   -3.6527    9.7793   22.4058 O   0  0  0  0  0  0  0  0  0  0  0  0
   -3.8452   11.7217   19.5430 C   0  0  0  0  0  0  0  0  0  0  0  0
   -4.3395   12.0344   18.4595 O   0  0  0  0  0  0  0  0  0  0  0  0
   -4.2613   10.7574   20.3985 N   0  0  0  0  0  0  0  0  0  0  0  0
   -5.4704    9.9605   20.1624 C   0  0  0  0  0  0  0  0  0  0  0  0
   -5.2604    8.8217   19.1553 C   0  0  0  0  0  0  0  0  0  0  0  0
   -6.5682    8.0353   18.9303 C   0  0  0  0  0  0  0  0  0  0  0  0
   -6.4614    6.9425   17.8300 N   0  0  0  0  0  0  0  0  0  0  0  0
   -6.1201    7.5472   16.4476 C   0  0  0  0  0  0  0  0  0  0  0  0
   -7.8291    6.2301   17.7274 C   0  0  0  0  0  0  0  0  0  0  0  0
   -5.4051    5.8816   18.1985 C   0  0  0  0  0  0  0  0  0  0  0  0
  1  2  1  0
  2  3  2  0
  2  5  1  0
  3  4  1  0
  4  6  2  0
  5  6  1  0
  6  7  1  0
  7  8  2  0
  7  9  1  0
  8 11  1  0
  9 10  1  0
 10 11  2  0
 12 11  1  1
 12 13  1  0
 12 19  1  0
 13 14  1  0
 13 17  1  1
 14 15  1  1
 14 18  1  0
 15 16  1  0
 16 17  1  0
 18 19  1  0
 18 22  1  1
 19 20  1  1
 20 21  2  0
 20 24  1  0
 22 23  2  0
 22 24  1  0
 24 25  1  0
 25 26  1  0
 26 27  1  0
 27 28  1  0
 28 29  1  0
 28 30  1  0
 28 31  1  0
M  CHG  2  13   1  28   1
M  END
$$$$
