7TYP - prepared_ligand3
     RDKit          3D

 65 70  0  0  1  0  0  0  0  0999 V2000
  -35.8768    4.5252   26.8417 N   0  0  0  0  0  0  0  0  0  0  0  0
  -33.7513    7.9541   22.3619 C   0  0  0  0  0  0  0  0  0  0  0  0
  -32.2394    8.7245   20.7590 C   0  0  0  0  0  0  0  0  0  0  0  0
  -33.3556    8.9201   21.5197 N   0  0  0  0  0  0  0  0  0  0  0  0
  -31.4802    7.5538   20.8518 C   0  0  0  0  0  0  0  0  0  0  0  0
  -36.3878    8.8041   24.7158 O   0  0  0  0  0  0  0  0  0  0  0  0
  -35.0439    5.2640   26.0578 C   0  0  0  0  0  0  0  0  0  0  0  0
  -34.6414    6.5650   23.8635 C   0  0  0  0  0  0  0  0  0  0  0  0
  -34.8577    7.8259   23.2539 C   0  0  0  0  0  0  0  0  0  0  0  0
  -33.0082    6.7763   22.4928 N   0  0  0  0  0  0  0  0  0  0  0  0
  -37.1483    4.3368   26.4031 C   0  0  0  0  0  0  0  0  0  0  0  0
  -37.5982    4.8960   25.2094 C   0  0  0  0  0  0  0  0  0  0  0  0
  -35.4893    5.8180   24.8413 C   0  0  0  0  0  0  0  0  0  0  0  0
  -33.5689    5.9524   23.4100 N   0  0  0  0  0  0  0  0  0  0  0  0
  -36.7748    5.6402   24.4313 N   0  0  0  0  0  0  0  0  0  0  0  0
  -33.6375    5.4571   26.6076 C   0  0  0  0  0  0  0  0  0  0  0  0
  -31.2011    5.4865   21.8635 O   0  0  0  0  0  0  0  0  0  0  0  0
  -31.8706    6.5645   21.7456 C   0  0  0  0  0  0  0  0  0  0  0  0
  -31.8984    9.8098   19.7817 C   0  0  0  0  0  0  0  0  0  0  0  0
  -32.8843   10.6836   19.3023 C   0  0  0  0  0  0  0  0  0  0  0  0
  -32.5939   11.6210   18.3186 C   0  0  0  0  0  0  0  0  0  0  0  0
  -31.3037   11.7127   17.7941 C   0  0  0  0  0  0  0  0  0  0  0  0
  -30.2974   10.8864   18.2984 C   0  0  0  0  0  0  0  0  0  0  0  0
  -30.5934    9.9528   19.2865 C   0  0  0  0  0  0  0  0  0  0  0  0
  -31.0345   12.6584   16.6235 C   0  0  0  0  0  0  0  0  0  0  0  0
  -30.9971   11.8821   15.2861 C   0  0  0  0  0  0  0  0  0  0  0  0
  -30.7951   12.8172   14.0787 C   0  0  0  0  0  0  0  0  0  0  0  0
  -29.5712   13.7338   14.2536 C   0  0  0  0  0  0  0  0  0  0  0  0
  -29.6043   14.4924   15.5952 C   0  0  0  0  0  0  0  0  0  0  0  0
  -29.7828   13.5502   16.8024 C   0  0  0  0  0  0  0  0  0  0  0  0
  -35.9204    8.7488   23.5780 C   0  0  0  0  0  0  0  0  0  0  0  0
  -37.2978   10.6875   22.6137 C   0  0  0  0  0  0  0  0  0  0  0  0
  -37.3586   10.5693   21.0865 C   0  0  0  0  0  0  0  0  0  0  0  0
  -36.5010    9.2970   21.1114 C   0  0  0  0  0  0  0  0  0  0  0  0
  -36.7142   11.7609   20.3581 C   0  0  0  0  0  0  0  0  0  0  0  0
  -36.7463   11.6482   19.0340 F   0  0  0  0  0  0  0  0  0  0  0  0
  -36.3699    9.5296   22.5758 N   0  0  0  0  0  0  0  0  0  0  0  0
  -30.6148    7.4011   20.2258 H   0  0  0  0  0  0  0  0  0  0  0  0
  -37.8039    3.7364   27.0112 H   0  0  0  0  0  0  0  0  0  0  0  0
  -38.6095    4.7469   24.8610 H   0  0  0  0  0  0  0  0  0  0  0  0
  -32.8854    5.5609   25.8299 H   0  0  0  0  0  0  0  0  0  0  0  0
  -33.5977    6.3551   27.2219 H   0  0  0  0  0  0  0  0  0  0  0  0
  -33.3366    4.6081   27.2230 H   0  0  0  0  0  0  0  0  0  0  0  0
  -33.9009   10.6142   19.6568 H   0  0  0  0  0  0  0  0  0  0  0  0
  -33.3879   12.2487   17.9438 H   0  0  0  0  0  0  0  0  0  0  0  0
  -29.2926   10.9356   17.9062 H   0  0  0  0  0  0  0  0  0  0  0  0
  -29.7944    9.3203   19.6389 H   0  0  0  0  0  0  0  0  0  0  0  0
  -31.8879   13.3367   16.5942 H   0  0  0  0  0  0  0  0  0  0  0  0
  -31.9358   11.3479   15.1454 H   0  0  0  0  0  0  0  0  0  0  0  0
  -30.1936   11.1433   15.2993 H   0  0  0  0  0  0  0  0  0  0  0  0
  -31.6878   13.4277   13.9374 H   0  0  0  0  0  0  0  0  0  0  0  0
  -30.6859   12.2230   13.1712 H   0  0  0  0  0  0  0  0  0  0  0  0
  -29.5134   14.4420   13.4257 H   0  0  0  0  0  0  0  0  0  0  0  0
  -28.6680   13.1286   14.1983 H   0  0  0  0  0  0  0  0  0  0  0  0
  -30.4275   15.2069   15.5796 H   0  0  0  0  0  0  0  0  0  0  0  0
  -28.6943   15.0787   15.7129 H   0  0  0  0  0  0  0  0  0  0  0  0
  -28.8814   12.9459   16.9092 H   0  0  0  0  0  0  0  0  0  0  0  0
  -29.8859   14.1632   17.6987 H   0  0  0  0  0  0  0  0  0  0  0  0
  -38.2326   10.4567   23.1166 H   0  0  0  0  0  0  0  0  0  0  0  0
  -36.8224   11.5936   22.9884 H   0  0  0  0  0  0  0  0  0  0  0  0
  -38.3627   10.4008   20.6991 H   0  0  0  0  0  0  0  0  0  0  0  0
  -35.5670    9.3816   20.5613 H   0  0  0  0  0  0  0  0  0  0  0  0
  -37.0470    8.3808   20.8899 H   0  0  0  0  0  0  0  0  0  0  0  0
  -35.6684   11.8837   20.6359 H   0  0  0  0  0  0  0  0  0  0  0  0
  -37.2251   12.6906   20.6040 H   0  0  0  0  0  0  0  0  0  0  0  0
  1  7  2  0
  1 11  1  0
  2  4  1  0
  2  9  2  0
  2 10  1  0
  3  4  2  0
  3  5  1  0
  3 19  1  0
  5 18  2  0
  5 38  1  0
  6 31  2  0
  7 13  1  0
  7 16  1  0
  8  9  1  0
  8 13  1  0
  8 14  2  0
  9 31  1  0
 10 14  1  0
 10 18  1  0
 11 12  2  0
 11 39  1  0
 12 15  1  0
 12 40  1  0
 13 15  2  0
 16 41  1  0
 16 42  1  0
 16 43  1  0
 17 18  1  0
 19 20  2  0
 19 24  1  0
 20 21  1  0
 20 44  1  0
 21 22  2  0
 21 45  1  0
 22 23  1  0
 22 25  1  0
 23 24  2  0
 23 46  1  0
 24 47  1  0
 25 26  1  0
 25 30  1  0
 25 48  1  0
 26 27  1  0
 26 49  1  0
 26 50  1  0
 27 28  1  0
 27 51  1  0
 27 52  1  0
 28 29  1  0
 28 53  1  0
 28 54  1  0
 29 30  1  0
 29 55  1  0
 29 56  1  0
 30 57  1  0
 30 58  1  0
 31 37  1  0
 32 33  1  0
 32 37  1  0
 32 59  1  0
 32 60  1  0
 33 34  1  0
 33 35  1  0
 33 61  1  0
 34 37  1  0
 34 62  1  0
 34 63  1  0
 35 36  1  0
 35 64  1  0
 35 65  1  0
M  CHG  1  17  -1
M  END
$$$$
