1MEH - prepared_ligand2
     RDKit          3D

 42 43  0  0  1  0  0  0  0  0999 V2000
   59.3146   58.1651   19.3965 C   0  0  0  0  0  0  0  0  0  0  0  0
   54.6399   56.3733   16.4271 C   0  0  0  0  0  0  0  0  0  0  0  0
   53.4771   55.7074   16.2472 C   0  0  0  0  0  0  0  0  0  0  0  0
   52.1395   56.3631   16.5766 C   0  0  0  0  0  0  0  0  0  0  0  0
   51.3670   55.7443   17.7690 C   0  0  0  0  0  0  0  0  0  0  0  0
   52.0651   56.0081   19.1172 C   0  0  0  0  0  0  0  0  0  0  0  0
   58.6401   53.3786   19.6753 C   0  0  0  0  0  0  0  0  0  0  0  0
   55.4986   53.2747   18.1573 C   0  0  0  0  0  0  0  0  0  0  0  0
   53.3533   54.2940   15.6900 C   0  0  0  0  0  0  0  0  0  0  0  0
   59.8933   56.2062   20.4295 C   0  0  0  0  0  0  0  0  0  0  0  0
   58.8755   55.8939   19.3758 C   0  0  0  0  0  0  0  0  0  0  0  0
   58.2828   54.6894   18.9869 C   0  0  0  0  0  0  0  0  0  0  0  0
   57.3410   54.7045   17.9424 C   0  0  0  0  0  0  0  0  0  0  0  0
   57.0062   55.9117   17.2982 C   0  0  0  0  0  0  0  0  0  0  0  0
   57.5898   57.1114   17.7348 C   0  0  0  0  0  0  0  0  0  0  0  0
   58.5315   57.0828   18.7638 C   0  0  0  0  0  0  0  0  0  0  0  0
   56.0540   55.9131   16.1016 C   0  0  0  0  0  0  0  0  0  0  0  0
   59.3287   59.3722   19.1616 O   0  0  0  0  0  0  0  0  0  0  0  0
   60.0902   57.6043   20.3433 O   0  0  0  0  0  0  0  0  0  0  0  0
   56.7548   53.5281   17.5404 O   0  0  0  0  0  0  0  0  0  0  0  0
   57.2401   58.3141   17.1734 O   0  0  0  0  0  0  0  0  0  0  0  0
   52.0341   57.1760   19.5648 O   0  0  0  0  0  0  0  0  0  0  0  0
   52.6135   55.0416   19.6910 O   0  0  0  0  0  0  0  0  0  0  0  0
   54.5920   57.3754   16.8300 H   0  0  0  0  0  0  0  0  0  0  0  0
   51.5242   56.2948   15.6800 H   0  0  0  0  0  0  0  0  0  0  0  0
   52.2752   57.4346   16.7381 H   0  0  0  0  0  0  0  0  0  0  0  0
   51.2057   54.6765   17.6101 H   0  0  0  0  0  0  0  0  0  0  0  0
   50.3664   56.1782   17.8104 H   0  0  0  0  0  0  0  0  0  0  0  0
   57.7575   52.9240   20.1218 H   0  0  0  0  0  0  0  0  0  0  0  0
   59.0347   52.6664   18.9524 H   0  0  0  0  0  0  0  0  0  0  0  0
   59.3817   53.5086   20.4635 H   0  0  0  0  0  0  0  0  0  0  0  0
   54.9848   52.4742   17.6268 H   0  0  0  0  0  0  0  0  0  0  0  0
   55.6323   52.9546   19.1877 H   0  0  0  0  0  0  0  0  0  0  0  0
   54.8432   54.1443   18.1641 H   0  0  0  0  0  0  0  0  0  0  0  0
   52.6992   54.2882   14.8180 H   0  0  0  0  0  0  0  0  0  0  0  0
   54.2994   53.8563   15.3877 H   0  0  0  0  0  0  0  0  0  0  0  0
   52.9261   53.6279   16.4386 H   0  0  0  0  0  0  0  0  0  0  0  0
   60.8376   55.6901   20.2623 H   0  0  0  0  0  0  0  0  0  0  0  0
   59.5435   55.9450   21.4279 H   0  0  0  0  0  0  0  0  0  0  0  0
   56.4441   56.6020   15.3536 H   0  0  0  0  0  0  0  0  0  0  0  0
   56.0737   54.9446   15.6106 H   0  0  0  0  0  0  0  0  0  0  0  0
   57.7308   59.0546   17.5396 H   0  0  0  0  0  0  0  0  0  0  0  0
  1 16  1  0
  1 18  2  0
  1 19  1  0
  2  3  2  0
  2 17  1  0
  2 24  1  0
  3  4  1  0
  3  9  1  0
  4  5  1  0
  4 25  1  0
  4 26  1  0
  5  6  1  0
  5 27  1  0
  5 28  1  0
  6 22  1  0
  6 23  2  0
  7 12  1  0
  7 29  1  0
  7 30  1  0
  7 31  1  0
  8 20  1  0
  8 32  1  0
  8 33  1  0
  8 34  1  0
  9 35  1  0
  9 36  1  0
  9 37  1  0
 10 11  1  0
 10 19  1  0
 10 38  1  0
 10 39  1  0
 11 12  1  0
 11 16  2  0
 12 13  2  0
 13 14  1  0
 13 20  1  0
 14 15  2  0
 14 17  1  0
 15 16  1  0
 15 21  1  0
 17 40  1  0
 17 41  1  0
 21 42  1  0
M  CHG  1  22  -1
M  END
$$$$
