1Q8U_ligand
     RDKit          3D

 22 24  0  0  1  0  0  0  0  0999 V2000
   18.5288    8.8391  -17.4116 O   0  0  0  0  0  0  0  0  0  0  0  0
   19.0573    8.5046  -18.7380 S   0  0  0  0  0  0  0  0  0  0  0  0
   18.6739    7.2627  -19.4197 O   0  0  0  0  0  0  0  0  0  0  0  0
   20.8329    8.5016  -18.5671 N   0  0  0  0  0  0  0  0  0  0  0  0
   21.6174    7.3978  -19.1998 C   0  0  1  0  0  0  0  0  0  0  0  0
   21.7477    7.6277  -20.7151 C   0  0  0  0  0  0  0  0  0  0  0  0
   23.0068    7.1393  -18.5715 C   0  0  0  0  0  0  0  0  0  0  0  0
   22.9625    6.8839  -17.0558 N   0  0  0  0  0  0  0  0  0  0  0  0
   22.9868    8.1178  -16.1421 C   0  0  0  0  0  0  0  0  0  0  0  0
   21.7277    8.9915  -16.2583 C   0  0  0  0  0  0  0  0  0  0  0  0
   21.4267    9.5262  -17.6694 C   0  0  0  0  0  0  0  0  0  0  0  0
   18.5943    9.8740  -19.8337 C   0  0  0  0  0  0  0  0  0  0  0  0
   17.2456   10.4059  -20.0019 C   0  0  0  0  0  0  0  0  0  0  0  0
   15.9941    9.8808  -19.4709 C   0  0  0  0  0  0  0  0  0  0  0  0
   15.8469    8.5596  -18.7317 C   0  0  0  0  0  0  0  0  0  0  0  0
   17.1234   11.6142  -20.7809 C   0  0  0  0  0  0  0  0  0  0  0  0
   18.2449   12.2050  -21.3996 C   0  0  0  0  0  0  0  0  0  0  0  0
   19.4951   11.6352  -21.2628 C   0  0  0  0  0  0  0  0  0  0  0  0
   19.6608   10.4992  -20.4923 C   0  0  0  0  0  0  0  0  0  0  0  0
   15.8537   12.2163  -20.9142 C   0  0  0  0  0  0  0  0  0  0  0  0
   14.7181   11.7481  -20.3689 N   0  0  0  0  0  0  0  0  0  0  0  0
   14.8101   10.5995  -19.6721 C   0  0  0  0  0  0  0  0  0  0  0  0
  1  2  2  0
  2  3  2  0
  2  4  1  0
  2 12  1  0
  4  5  1  0
  4 11  1  0
  5  6  1  6
  5  7  1  0
  7  8  1  0
  8  9  1  0
  9 10  1  0
 10 11  1  0
 12 13  1  0
 12 19  2  0
 13 14  2  0
 13 16  1  0
 14 15  1  0
 14 22  1  0
 16 17  1  0
 16 20  2  0
 17 18  2  0
 18 19  1  0
 20 21  1  0
 21 22  2  0
M  CHG  1   8   1
M  END
$$$$
