2HB1_ligand
     RDKit          3D

 14 14  0  0  1  0  0  0  0  0999 V2000
   45.2457   12.8184    1.0303 C   0  0  0  0  0  0  0  0  0  0  0  0
   45.7870   13.2759    2.2144 C   0  0  0  0  0  0  0  0  0  0  0  0
   44.5036   14.0848    0.1306 S   0  0  0  0  0  0  0  0  0  0  0  0
   44.8832   15.2711    1.3722 C   0  0  0  0  0  0  0  0  0  0  0  0
   45.6210   14.6562    2.4062 C   0  0  0  0  0  0  0  0  0  0  0  0
   44.3696   16.6588    1.2497 C   0  0  0  0  0  0  0  0  0  0  0  0
   43.8959   17.0440    0.1572 O   0  0  0  0  0  0  0  0  0  0  0  0
   46.1015   15.2857    3.5263 O   0  0  0  0  0  0  0  0  0  0  0  0
   47.3355   15.9817    3.3130 C   0  0  0  0  0  0  0  0  0  0  0  0
   47.7821   16.7121    4.6009 C   0  0  0  0  0  0  0  0  0  0  0  0
   48.9059   17.2554    4.5717 O   0  0  0  0  0  0  0  0  0  0  0  0
   44.4280   17.3842    2.2675 O   0  0  0  0  0  0  0  0  0  0  0  0
   47.0363   16.7389    5.6082 O   0  0  0  0  0  0  0  0  0  0  0  0
   46.6728   12.1303    3.4394 Br  0  0  0  0  0  0  0  0  0  0  0  0
  1  2  2  0
  1  3  1  0
  2  5  1  0
  2 14  1  0
  3  4  1  0
  4  5  2  0
  4  6  1  0
  5  8  1  0
  6  7  2  0
  6 12  1  0
  8  9  1  0
  9 10  1  0
 10 11  2  0
 10 13  1  0
M  CHG  2  12  -1  13  -1
M  END
$$$$
