7BHX - prepared_ligand1
     RDKit          3D

 34 36  0  0  1  0  0  0  0  0999 V2000
   30.3466   54.1073   11.7325 C   0  0  0  0  0  0  0  0  0  0  0  0
   31.7383   53.3958   13.7080 C   0  0  0  0  0  0  0  0  0  0  0  0
   33.2481   52.0147   14.9079 C   0  0  0  0  0  0  0  0  0  0  0  0
   33.1543   48.8420   18.7067 C   0  0  0  0  0  0  0  0  0  0  0  0
   32.6014   49.3304   16.5030 C   0  0  0  0  0  0  0  0  0  0  0  0
   30.8979   52.1636   15.6677 C   0  0  0  0  0  0  0  0  0  0  0  0
   29.8736   51.8033   16.5645 C   0  0  0  0  0  0  0  0  0  0  0  0
   28.6109   52.3854   16.4813 C   0  0  0  0  0  0  0  0  0  0  0  0
   28.3645   53.3618   15.5229 C   0  0  0  0  0  0  0  0  0  0  0  0
   29.3655   53.7384   14.6323 C   0  0  0  0  0  0  0  0  0  0  0  0
   30.6199   53.1098   14.6541 C   0  0  0  0  0  0  0  0  0  0  0  0
   27.3501   51.8869   17.5505 Cl  0  0  0  0  0  0  0  0  0  0  0  0
   31.5244   54.2331   12.5944 N   0  0  0  0  0  0  0  0  0  0  0  0
   32.6524   54.8409   11.8802 C   0  0  0  0  0  0  0  0  0  0  0  0
   32.2250   51.6307   15.7595 N   0  0  0  0  0  0  0  0  0  0  0  0
   34.3825   51.5582   15.0799 O   0  0  0  0  0  0  0  0  0  0  0  0
   32.9197   52.9157   13.8841 N   0  0  0  0  0  0  0  0  0  0  0  0
   32.5168   50.6998   16.7840 C   0  0  0  0  0  0  0  0  0  0  0  0
   32.9196   48.4051   17.4428 N   0  0  0  0  0  0  0  0  0  0  0  0
   33.0725   50.1864   19.0760 C   0  0  0  0  0  0  0  0  0  0  0  0
   32.7505   51.1284   18.0975 C   0  0  0  0  0  0  0  0  0  0  0  0
   30.6352   53.8015   10.7262 H   0  0  0  0  0  0  0  0  0  0  0  0
   29.6213   53.3742   12.0796 H   0  0  0  0  0  0  0  0  0  0  0  0
   29.8397   55.0691   11.6512 H   0  0  0  0  0  0  0  0  0  0  0  0
   33.4141   48.0869   19.4331 H   0  0  0  0  0  0  0  0  0  0  0  0
   32.4343   48.9585   15.5039 H   0  0  0  0  0  0  0  0  0  0  0  0
   30.0415   51.0657   17.3329 H   0  0  0  0  0  0  0  0  0  0  0  0
   27.3915   53.8178   15.4503 H   0  0  0  0  0  0  0  0  0  0  0  0
   29.1388   54.5207   13.9277 H   0  0  0  0  0  0  0  0  0  0  0  0
   33.3211   55.3524   12.5743 H   0  0  0  0  0  0  0  0  0  0  0  0
   33.2271   54.0806   11.3495 H   0  0  0  0  0  0  0  0  0  0  0  0
   32.3170   55.5798   11.1509 H   0  0  0  0  0  0  0  0  0  0  0  0
   33.2611   50.4922   20.0949 H   0  0  0  0  0  0  0  0  0  0  0  0
   32.6928   52.1767   18.3538 H   0  0  0  0  0  0  0  0  0  0  0  0
  1 13  1  0
  1 22  1  0
  1 23  1  0
  1 24  1  0
  2 11  1  0
  2 13  1  0
  2 17  2  0
  3 15  1  0
  3 16  2  0
  3 17  1  0
  4 19  2  0
  4 20  1  0
  4 25  1  0
  5 18  2  0
  5 19  1  0
  5 26  1  0
  6  7  1  0
  6 11  2  0
  6 15  1  0
  7  8  2  0
  7 27  1  0
  8  9  1  0
  8 12  1  0
  9 10  2  0
  9 28  1  0
 10 11  1  0
 10 29  1  0
 13 14  1  0
 14 30  1  0
 14 31  1  0
 14 32  1  0
 15 18  1  0
 18 21  1  0
 20 21  2  0
 20 33  1  0
 21 34  1  0
M  END
$$$$
