1YDR_ligand
     RDKit          3D

 20 22  0  0  1  0  0  0  0  0999 V2000
    6.8974    9.9255    3.2887 C   0  0  0  0  0  0  0  0  0  0  0  0
    7.2219    9.9107    1.9281 C   0  0  0  0  0  0  0  0  0  0  0  0
    6.2368    9.9045    0.9464 C   0  0  0  0  0  0  0  0  0  0  0  0
    4.8940    9.8761    1.2947 C   0  0  0  0  0  0  0  0  0  0  0  0
    4.5234    9.8755    2.6576 C   0  0  0  0  0  0  0  0  0  0  0  0
    3.1781    9.7979    3.0697 C   0  0  0  0  0  0  0  0  0  0  0  0
    2.7735    9.8128    4.3567 N   0  0  0  0  0  0  0  0  0  0  0  0
    3.7222    9.9182    5.3109 C   0  0  0  0  0  0  0  0  0  0  0  0
    5.0839    9.9949    5.0349 C   0  0  0  0  0  0  0  0  0  0  0  0
    5.5245    9.9400    3.6795 C   0  0  0  0  0  0  0  0  0  0  0  0
    8.2257    9.8549    4.5022 S   0  0  0  0  0  0  0  0  0  0  0  0
    7.8476    8.8964    5.5453 O   0  0  0  0  0  0  0  0  0  0  0  0
    8.5345   11.2418    4.8560 O   0  0  0  0  0  0  0  0  0  0  0  0
    9.6123    9.1635    3.6494 N   0  0  0  0  0  0  0  0  0  0  0  0
   10.9536    9.7668    3.8756 C   0  0  1  0  0  0  0  0  0  0  0  0
   11.4114    9.4348    5.3083 C   0  0  0  0  0  0  0  0  0  0  0  0
   11.9496    9.3504    2.7696 C   0  0  0  0  0  0  0  0  0  0  0  0
   11.9493    7.8187    2.6047 N   0  0  0  0  0  0  0  0  0  0  0  0
   10.5441    7.2448    2.3480 C   0  0  0  0  0  0  0  0  0  0  0  0
    9.5668    7.6913    3.4516 C   0  0  0  0  0  0  0  0  0  0  0  0
  1  2  2  0
  1 10  1  0
  1 11  1  0
  2  3  1  0
  3  4  2  0
  4  5  1  0
  5  6  1  0
  5 10  2  0
  6  7  2  0
  7  8  1  0
  8  9  2  0
  9 10  1  0
 11 12  2  0
 11 13  2  0
 11 14  1  0
 14 15  1  0
 14 20  1  0
 15 16  1  1
 15 17  1  0
 17 18  1  0
 18 19  1  0
 19 20  1  0
M  CHG  1  18   1
M  END
$$$$
