7M3H - prepared_ligand2
     RDKit          3D

 42 43  0  0  1  0  0  0  0  0999 V2000
  -24.3161  -14.8100   20.7291 C   0  0  0  0  0  0  0  0  0  0  0  0
  -24.1091  -15.7420   21.7432 C   0  0  0  0  0  0  0  0  0  0  0  0
  -25.1374  -16.5779   22.1527 C   0  0  0  0  0  0  0  0  0  0  0  0
  -24.8155  -10.5296   21.2801 C   0  0  0  0  0  0  0  0  0  0  0  0
  -26.4522   -8.8671   22.2623 C   0  0  0  0  0  0  0  0  0  0  0  0
  -25.4143   -9.9592   22.4218 C   0  0  0  0  0  0  0  0  0  0  0  0
  -25.0230  -10.4731   23.6848 C   0  0  0  0  0  0  0  0  0  0  0  0
  -24.0893  -11.5028   23.7783 C   0  0  0  0  0  0  0  0  0  0  0  0
  -23.5235  -12.0496   22.6357 C   0  0  0  0  0  0  0  0  0  0  0  0
  -23.9013  -11.5774   21.3822 C   0  0  0  0  0  0  0  0  0  0  0  0
  -26.3849  -16.4867   21.5396 C   0  0  0  0  0  0  0  0  0  0  0  0
  -27.4599  -17.5003   21.8923 C   0  0  0  0  0  0  0  0  0  0  0  0
  -27.8859  -18.3783   20.6969 C   0  0  0  0  0  0  0  0  0  0  0  0
  -26.7533  -19.2529   20.1229 C   0  0  0  0  0  0  0  0  0  0  0  0
  -27.1358  -19.9631   18.8166 C   0  0  0  0  0  0  0  0  0  0  0  0
  -26.6223  -15.5055   20.5729 C   0  0  0  0  0  0  0  0  0  0  0  0
  -25.5888  -14.6661   20.1659 C   0  0  0  0  0  0  0  0  0  0  0  0
  -23.1997  -14.0871   20.2943 N   0  0  0  0  0  0  0  0  0  0  0  0
  -27.2461   -8.6423   23.2036 O   0  0  0  0  0  0  0  0  0  0  0  0
  -25.5266  -10.0007   24.8693 O   0  0  0  0  0  0  0  0  0  0  0  0
  -24.2283  -12.1751   18.8244 O   0  0  0  0  0  0  0  0  0  0  0  0
  -21.8729  -11.9339   19.7581 O   0  0  0  0  0  0  0  0  0  0  0  0
  -26.5044   -8.2264   21.1862 O   0  0  0  0  0  0  0  0  0  0  0  0
  -23.2644  -12.3636   19.9120 S   0  0  0  0  0  0  0  0  0  0  0  0
  -23.1390  -15.8490   22.1976 H   0  0  0  0  0  0  0  0  0  0  0  0
  -24.9471  -17.3213   22.9143 H   0  0  0  0  0  0  0  0  0  0  0  0
  -25.0826  -10.1855   20.2914 H   0  0  0  0  0  0  0  0  0  0  0  0
  -23.7979  -11.8861   24.7443 H   0  0  0  0  0  0  0  0  0  0  0  0
  -22.8137  -12.8561   22.7315 H   0  0  0  0  0  0  0  0  0  0  0  0
  -28.3178  -16.9680   22.2932 H   0  0  0  0  0  0  0  0  0  0  0  0
  -27.1033  -18.1298   22.7062 H   0  0  0  0  0  0  0  0  0  0  0  0
  -28.2791  -17.7349   19.9117 H   0  0  0  0  0  0  0  0  0  0  0  0
  -28.7160  -19.0179   21.0002 H   0  0  0  0  0  0  0  0  0  0  0  0
  -26.4637  -19.9918   20.8693 H   0  0  0  0  0  0  0  0  0  0  0  0
  -25.8650  -18.6491   19.9352 H   0  0  0  0  0  0  0  0  0  0  0  0
  -26.3219  -20.5987   18.4651 H   0  0  0  0  0  0  0  0  0  0  0  0
  -28.0178  -20.5911   18.9461 H   0  0  0  0  0  0  0  0  0  0  0  0
  -27.3510  -19.2426   18.0270 H   0  0  0  0  0  0  0  0  0  0  0  0
  -27.5927  -15.4211   20.1073 H   0  0  0  0  0  0  0  0  0  0  0  0
  -25.7802  -13.9510   19.3819 H   0  0  0  0  0  0  0  0  0  0  0  0
  -22.3243  -14.3707   20.7155 H   0  0  0  0  0  0  0  0  0  0  0  0
  -26.2076   -9.3381   24.7089 H   0  0  0  0  0  0  0  0  0  0  0  0
  1  2  2  0
  1 17  1  0
  1 18  1  0
  2  3  1  0
  2 25  1  0
  3 11  2  0
  3 26  1  0
  4  6  2  0
  4 10  1  0
  4 27  1  0
  5  6  1  0
  5 19  1  0
  5 23  2  0
  6  7  1  0
  7  8  2  0
  7 20  1  0
  8  9  1  0
  8 28  1  0
  9 10  2  0
  9 29  1  0
 10 24  1  0
 11 12  1  0
 11 16  1  0
 12 13  1  0
 12 30  1  0
 12 31  1  0
 13 14  1  0
 13 32  1  0
 13 33  1  0
 14 15  1  0
 14 34  1  0
 14 35  1  0
 15 36  1  0
 15 37  1  0
 15 38  1  0
 16 17  2  0
 16 39  1  0
 17 40  1  0
 18 24  1  0
 18 41  1  0
 20 42  1  0
 21 24  2  0
 22 24  2  0
M  CHG  1  19  -1
M  END
$$$$
