7QGP - prepared_ligand
     RDKit          3D

 60 64  0  0  1  0  0  0  0  0999 V2000
  -28.3901    4.4302   11.5084 N   0  0  0  0  0  0  0  0  0  0  0  0
  -31.8628    5.2852   11.0317 C   0  0  0  0  0  0  0  0  0  0  0  0
  -29.5793    4.8650   11.9711 C   0  0  0  0  0  0  0  0  0  0  0  0
  -20.6558    1.0872   11.1064 N   0  0  0  0  0  0  0  0  0  0  0  0
  -27.2412    4.1128   12.2588 C   0  0  0  0  0  0  0  0  0  0  0  0
  -26.6461    2.5362   10.5397 O   0  0  0  0  0  0  0  0  0  0  0  0
  -32.3482    7.8027   11.1400 C   0  0  0  0  0  0  0  0  0  0  0  0
  -32.9178    6.5616    9.1374 C   0  0  0  0  0  0  0  0  0  0  0  0
  -32.3602    6.5915   10.4210 C   0  0  0  0  0  0  0  0  0  0  0  0
  -21.4986    2.5853   14.8358 N   0  0  0  0  0  0  0  0  0  0  0  0
  -33.4378    7.7196    8.5617 C   0  0  0  0  0  0  0  0  0  0  0  0
  -33.4167    8.9178    9.2686 C   0  0  0  0  0  0  0  0  0  0  0  0
  -32.8738    8.9570   10.5509 C   0  0  0  0  0  0  0  0  0  0  0  0
  -21.9876    3.0943   15.9841 N   0  0  0  0  0  0  0  0  0  0  0  0
  -29.8901    4.9574   13.1594 O   0  0  0  0  0  0  0  0  0  0  0  0
  -30.4103    5.1550   10.9606 N   0  0  0  0  0  0  0  0  0  0  0  0
  -34.1030   10.3412    8.5769 Cl  0  0  0  0  0  0  0  0  0  0  0  0
  -31.7888    7.8898   12.5531 C   0  0  0  0  0  0  0  0  0  0  0  0
  -26.3608    3.1367   11.7578 C   0  0  0  0  0  0  0  0  0  0  0  0
  -25.2136    2.8317   12.5002 C   0  0  0  0  0  0  0  0  0  0  0  0
  -25.8278    1.4801   10.0199 C   0  0  0  0  0  0  0  0  0  0  0  0
  -24.5443    2.0021    9.3365 C   0  0  0  0  0  0  0  0  0  0  0  0
  -23.6971    0.9307    8.9177 O   0  0  0  0  0  0  0  0  0  0  0  0
  -22.7707    0.4392    9.8852 C   0  0  0  0  0  0  0  0  0  0  0  0
  -21.5337    1.3567    9.9672 C   0  0  0  0  0  0  0  0  0  0  0  0
  -20.9257    1.6253   12.3745 C   0  0  0  0  0  0  0  0  0  0  0  0
  -22.1204    2.2456   12.5673 N   0  0  0  0  0  0  0  0  0  0  0  0
  -22.4247    2.6740   13.7930 C   0  0  0  0  0  0  0  0  0  0  0  0
  -20.2630    2.0230   14.6468 C   0  0  0  0  0  0  0  0  0  0  0  0
  -19.9719    1.4992   13.3869 C   0  0  0  0  0  0  0  0  0  0  0  0
  -23.5931    3.2438   14.3580 C   0  0  0  0  0  0  0  0  0  0  0  0
  -23.2205    3.4603   15.6880 C   0  0  0  0  0  0  0  0  0  0  0  0
  -24.8951    3.5078   13.6810 C   0  0  0  0  0  0  0  0  0  0  0  0
  -25.7711    4.4795   14.1596 C   0  0  0  0  0  0  0  0  0  0  0  0
  -26.9370    4.7744   13.4595 C   0  0  0  0  0  0  0  0  0  0  0  0
  -28.3194    4.2474   10.5170 H   0  0  0  0  0  0  0  0  0  0  0  0
  -32.2874    4.4381   10.4901 H   0  0  0  0  0  0  0  0  0  0  0  0
  -32.2467    5.1868   12.0472 H   0  0  0  0  0  0  0  0  0  0  0  0
  -19.9082    0.4145   11.0040 H   0  0  0  0  0  0  0  0  0  0  0  0
  -32.9516    5.6367    8.5799 H   0  0  0  0  0  0  0  0  0  0  0  0
  -33.8736    7.6820    7.5746 H   0  0  0  0  0  0  0  0  0  0  0  0
  -32.8894    9.8875   11.0937 H   0  0  0  0  0  0  0  0  0  0  0  0
  -30.0189    5.1905   10.0274 H   0  0  0  0  0  0  0  0  0  0  0  0
  -31.8759    8.8926   12.9722 H   0  0  0  0  0  0  0  0  0  0  0  0
  -32.3171    7.2042   13.2152 H   0  0  0  0  0  0  0  0  0  0  0  0
  -30.7351    7.6121   12.5593 H   0  0  0  0  0  0  0  0  0  0  0  0
  -24.5442    2.0698   12.1435 H   0  0  0  0  0  0  0  0  0  0  0  0
  -26.4293    0.9663    9.2687 H   0  0  0  0  0  0  0  0  0  0  0  0
  -25.6191    0.7218   10.7760 H   0  0  0  0  0  0  0  0  0  0  0  0
  -24.0160    2.7290    9.9534 H   0  0  0  0  0  0  0  0  0  0  0  0
  -24.8354    2.5436    8.4369 H   0  0  0  0  0  0  0  0  0  0  0  0
  -22.4564   -0.5579    9.5800 H   0  0  0  0  0  0  0  0  0  0  0  0
  -23.2590    0.3207   10.8532 H   0  0  0  0  0  0  0  0  0  0  0  0
  -20.9421    1.2623    9.0575 H   0  0  0  0  0  0  0  0  0  0  0  0
  -21.8387    2.4029   10.0025 H   0  0  0  0  0  0  0  0  0  0  0  0
  -19.5844    2.0005   15.4843 H   0  0  0  0  0  0  0  0  0  0  0  0
  -19.0223    1.0218   13.1954 H   0  0  0  0  0  0  0  0  0  0  0  0
  -23.8650    3.8867   16.4398 H   0  0  0  0  0  0  0  0  0  0  0  0
  -25.5448    5.0260   15.0629 H   0  0  0  0  0  0  0  0  0  0  0  0
  -27.5805    5.5468   13.8471 H   0  0  0  0  0  0  0  0  0  0  0  0
  1  3  1  0
  1  5  1  0
  1 36  1  0
  2  9  1  0
  2 16  1  0
  2 37  1  0
  2 38  1  0
  3 15  2  0
  3 16  1  0
  4 25  1  0
  4 26  1  0
  4 39  1  0
  5 19  2  0
  5 35  1  0
  6 19  1  0
  6 21  1  0
  7  9  2  0
  7 13  1  0
  7 18  1  0
  8  9  1  0
  8 11  2  0
  8 40  1  0
 10 14  1  0
 10 28  1  0
 10 29  1  0
 11 12  1  0
 11 41  1  0
 12 13  2  0
 12 17  1  0
 13 42  1  0
 14 32  2  0
 16 43  1  0
 18 44  1  0
 18 45  1  0
 18 46  1  0
 19 20  1  0
 20 33  2  0
 20 47  1  0
 21 22  1  0
 21 48  1  0
 21 49  1  0
 22 23  1  0
 22 50  1  0
 22 51  1  0
 23 24  1  0
 24 25  1  0
 24 52  1  0
 24 53  1  0
 25 54  1  0
 25 55  1  0
 26 27  2  0
 26 30  1  0
 27 28  1  0
 28 31  2  0
 29 30  2  0
 29 56  1  0
 30 57  1  0
 31 32  1  0
 31 33  1  0
 32 58  1  0
 33 34  1  0
 34 35  2  0
 34 59  1  0
 35 60  1  0
M  END
$$$$
