1SJ0 - prepared_ligand
     RDKit          3D

 63 67  0  0  1  0  0  0  0  0999 V2000
   31.1595   -0.2075   28.7235 C   0  0  2  0  0  0  0  0  0  0  0  0
   31.2480   -1.6538   28.1766 C   0  0  1  0  0  0  0  0  0  0  0  0
   30.1039   -2.3822   28.5931 O   0  0  0  0  0  0  0  0  0  0  0  0
   28.9072   -1.9649   28.0677 C   0  0  0  0  0  0  0  0  0  0  0  0
   28.0140   -2.9891   27.7844 C   0  0  0  0  0  0  0  0  0  0  0  0
   26.7538   -2.6837   27.2951 C   0  0  0  0  0  0  0  0  0  0  0  0
   26.3890   -1.3574   27.0618 C   0  0  0  0  0  0  0  0  0  0  0  0
   25.1580   -1.0784   26.5378 O   0  0  0  0  0  0  0  0  0  0  0  0
   27.2812   -0.3262   27.3607 C   0  0  0  0  0  0  0  0  0  0  0  0
   28.5483   -0.6179   27.8732 C   0  0  0  0  0  0  0  0  0  0  0  0
   29.6438    0.7179   28.2775 S   0  0  0  0  0  0  0  0  0  0  0  0
   32.4516    0.5617   28.4866 C   0  0  0  0  0  0  0  0  0  0  0  0
   32.6103    1.3689   27.3563 C   0  0  0  0  0  0  0  0  0  0  0  0
   33.8299    1.9798   27.1056 C   0  0  0  0  0  0  0  0  0  0  0  0
   34.8876    1.7702   27.9812 C   0  0  0  0  0  0  0  0  0  0  0  0
   36.0893    2.3404   27.7036 O   0  0  0  0  0  0  0  0  0  0  0  0
   34.7423    0.9776   29.1165 C   0  0  0  0  0  0  0  0  0  0  0  0
   33.5177    0.3758   29.3717 C   0  0  0  0  0  0  0  0  0  0  0  0
   31.6299   -1.8758   26.6970 C   0  0  0  0  0  0  0  0  0  0  0  0
   32.5664   -2.8662   26.3704 C   0  0  0  0  0  0  0  0  0  0  0  0
   32.9726   -3.0552   25.0501 C   0  0  0  0  0  0  0  0  0  0  0  0
   32.4523   -2.2402   24.0333 C   0  0  0  0  0  0  0  0  0  0  0  0
   31.4944   -1.2845   24.3577 C   0  0  0  0  0  0  0  0  0  0  0  0
   31.0795   -1.1049   25.6702 C   0  0  0  0  0  0  0  0  0  0  0  0
   32.8075   -2.2867   22.7002 O   0  0  0  0  0  0  0  0  0  0  0  0
   33.8871   -3.0904   22.2307 C   0  0  0  0  0  0  0  0  0  0  0  0
   33.3765   -4.3449   21.4860 C   0  0  0  0  0  0  0  0  0  0  0  0
   32.6048   -4.0598   20.1703 N   0  0  0  0  0  0  0  0  0  0  0  0
   31.3300   -3.2119   20.3736 C   0  0  0  0  0  0  0  0  0  0  0  0
   30.5301   -3.1617   19.0624 C   0  0  0  0  0  0  0  0  0  0  0  0
   31.3898   -2.6800   17.8815 C   0  0  0  0  0  0  0  0  0  0  0  0
   32.6840   -3.4988   17.7325 C   0  0  0  0  0  0  0  0  0  0  0  0
   33.5055   -3.5214   19.0351 C   0  0  0  0  0  0  0  0  0  0  0  0
   31.0627   -0.2865   29.8080 H   0  0  0  0  0  0  0  0  0  0  0  0
   32.0672   -2.1094   28.7363 H   0  0  0  0  0  0  0  0  0  0  0  0
   28.2877   -4.0193   27.9614 H   0  0  0  0  0  0  0  0  0  0  0  0
   26.0759   -3.4983   27.1188 H   0  0  0  0  0  0  0  0  0  0  0  0
   24.7567   -1.8771   26.1722 H   0  0  0  0  0  0  0  0  0  0  0  0
   26.9869    0.7010   27.1955 H   0  0  0  0  0  0  0  0  0  0  0  0
   31.8025    1.5072   26.6544 H   0  0  0  0  0  0  0  0  0  0  0  0
   33.9573    2.5892   26.2227 H   0  0  0  0  0  0  0  0  0  0  0  0
   36.8010    2.0247   28.2731 H   0  0  0  0  0  0  0  0  0  0  0  0
   35.5715    0.8185   29.7892 H   0  0  0  0  0  0  0  0  0  0  0  0
   33.4085   -0.2585   30.2393 H   0  0  0  0  0  0  0  0  0  0  0  0
   32.9945   -3.4903   27.1413 H   0  0  0  0  0  0  0  0  0  0  0  0
   33.6961   -3.8284   24.8462 H   0  0  0  0  0  0  0  0  0  0  0  0
   31.0800   -0.6539   23.5891 H   0  0  0  0  0  0  0  0  0  0  0  0
   30.3453   -0.3420   25.8671 H   0  0  0  0  0  0  0  0  0  0  0  0
   34.5970   -3.3540   23.0098 H   0  0  0  0  0  0  0  0  0  0  0  0
   34.4705   -2.4741   21.5471 H   0  0  0  0  0  0  0  0  0  0  0  0
   32.6752   -4.9184   22.0946 H   0  0  0  0  0  0  0  0  0  0  0  0
   34.1843   -5.0121   21.1898 H   0  0  0  0  0  0  0  0  0  0  0  0
   32.2647   -4.9633   19.8540 H   0  0  0  0  0  0  0  0  0  0  0  0
   31.6699   -2.2212   20.6466 H   0  0  0  0  0  0  0  0  0  0  0  0
   30.7634   -3.6553   21.1938 H   0  0  0  0  0  0  0  0  0  0  0  0
   29.6706   -2.5011   19.1840 H   0  0  0  0  0  0  0  0  0  0  0  0
   30.1168   -4.1459   18.8443 H   0  0  0  0  0  0  0  0  0  0  0  0
   31.6359   -1.6240   18.0121 H   0  0  0  0  0  0  0  0  0  0  0  0
   30.8132   -2.7477   16.9630 H   0  0  0  0  0  0  0  0  0  0  0  0
   33.2912   -3.0817   16.9277 H   0  0  0  0  0  0  0  0  0  0  0  0
   32.4419   -4.5201   17.4334 H   0  0  0  0  0  0  0  0  0  0  0  0
   34.3697   -4.1841   18.9625 H   0  0  0  0  0  0  0  0  0  0  0  0
   33.8334   -2.5224   19.3270 H   0  0  0  0  0  0  0  0  0  0  0  0
  1  2  1  0
  1 11  1  0
  1 12  1  0
  1 34  1  1
  2  3  1  0
  2 19  1  0
  2 35  1  1
  3  4  1  0
  4  5  2  0
  4 10  1  0
  5  6  1  0
  5 36  1  0
  6  7  2  0
  6 37  1  0
  7  8  1  0
  7  9  1  0
  8 38  1  0
  9 10  2  0
  9 39  1  0
 10 11  1  0
 12 13  2  0
 12 18  1  0
 13 14  1  0
 13 40  1  0
 14 15  2  0
 14 41  1  0
 15 16  1  0
 15 17  1  0
 16 42  1  0
 17 18  2  0
 17 43  1  0
 18 44  1  0
 19 20  2  0
 19 24  1  0
 20 21  1  0
 20 45  1  0
 21 22  2  0
 21 46  1  0
 22 23  1  0
 22 25  1  0
 23 24  2  0
 23 47  1  0
 24 48  1  0
 25 26  1  0
 26 27  1  0
 26 49  1  0
 26 50  1  0
 27 28  1  0
 27 51  1  0
 27 52  1  0
 28 29  1  0
 28 33  1  0
 28 53  1  0
 29 30  1  0
 29 54  1  0
 29 55  1  0
 30 31  1  0
 30 56  1  0
 30 57  1  0
 31 32  1  0
 31 58  1  0
 31 59  1  0
 32 33  1  0
 32 60  1  0
 32 61  1  0
 33 62  1  0
 33 63  1  0
M  CHG  1  28   1
M  END
$$$$
