6TW7 - prepared_ligand2
     RDKit          3D

 53 56  0  0  1  0  0  0  0  0999 V2000
    3.2388   45.5306   58.9502 C   0  0  0  0  0  0  0  0  0  0  0  0
    1.9187   44.9443   59.4169 C   0  0  0  0  0  0  0  0  0  0  0  0
    0.4134   46.1282   57.6812 C   0  0  0  0  0  0  0  0  0  0  0  0
    4.2231   44.7649   58.5474 N   0  0  0  0  0  0  0  0  0  0  0  0
    5.0785   49.2585   58.6661 C   0  0  0  0  0  0  0  0  0  0  0  0
    5.7384   48.0575   58.4052 C   0  0  0  0  0  0  0  0  0  0  0  0
    4.9815   46.8887   58.5100 C   0  0  0  0  0  0  0  0  0  0  0  0
    3.7305   49.3124   59.0381 C   0  0  0  0  0  0  0  0  0  0  0  0
    5.3940   52.3003   61.5865 C   0  0  0  0  0  0  0  0  0  0  0  0
    6.7966   51.8298   62.0061 C   0  0  0  0  0  0  0  0  0  0  0  0
    6.7795   50.6727   62.9937 C   0  0  0  0  0  0  0  0  0  0  0  0
    3.5891   51.6009   60.1127 C   0  0  0  0  0  0  0  0  0  0  0  0
    2.8967   52.8134   60.2700 C   0  0  0  0  0  0  0  0  0  0  0  0
    6.6084   49.3535   62.5593 C   0  0  0  0  0  0  0  0  0  0  0  0
    3.0519   50.6158   59.2617 C   0  0  0  0  0  0  0  0  0  0  0  0
    3.6270   46.9025   58.9100 C   0  0  0  0  0  0  0  0  0  0  0  0
    3.0039   48.1261   59.1805 C   0  0  0  0  0  0  0  0  0  0  0  0
    1.7025   53.0471   59.5935 C   0  0  0  0  0  0  0  0  0  0  0  0
    1.1660   52.0672   58.7711 C   0  0  0  0  0  0  0  0  0  0  0  0
    1.8396   50.8629   58.6049 C   0  0  0  0  0  0  0  0  0  0  0  0
    5.2774   45.5593   58.2961 N   0  0  0  0  0  0  0  0  0  0  0  0
    1.0637   54.2271   59.7294 F   0  0  0  0  0  0  0  0  0  0  0  0
    0.9038   44.7865   58.2621 N   0  0  0  0  0  0  0  0  0  0  0  0
    1.3869   43.8350   57.1534 C   0  0  0  0  0  0  0  0  0  0  0  0
    4.7766   51.3137   60.7643 O   0  0  0  0  0  0  0  0  0  0  0  0
    6.9347   50.8999   64.3656 C   0  0  0  0  0  0  0  0  0  0  0  0
    6.9272   49.9036   65.2888 N   0  0  0  0  0  0  0  0  0  0  0  0
    6.7496   48.6339   64.8465 C   0  0  0  0  0  0  0  0  0  0  0  0
    6.5881   48.3191   63.4973 C   0  0  0  0  0  0  0  0  0  0  0  0
    1.4096   45.5538   60.1652 H   0  0  0  0  0  0  0  0  0  0  0  0
    2.0210   43.9396   59.8272 H   0  0  0  0  0  0  0  0  0  0  0  0
   -0.4004   45.8998   56.9916 H   0  0  0  0  0  0  0  0  0  0  0  0
    0.0542   46.7343   58.5140 H   0  0  0  0  0  0  0  0  0  0  0  0
    1.2491   46.5995   57.1663 H   0  0  0  0  0  0  0  0  0  0  0  0
    5.6354   50.1790   58.5693 H   0  0  0  0  0  0  0  0  0  0  0  0
    6.7806   48.0474   58.1325 H   0  0  0  0  0  0  0  0  0  0  0  0
    5.4992   53.2297   61.0270 H   0  0  0  0  0  0  0  0  0  0  0  0
    4.7774   52.5053   62.4628 H   0  0  0  0  0  0  0  0  0  0  0  0
    7.3413   52.6649   62.4494 H   0  0  0  0  0  0  0  0  0  0  0  0
    7.3747   51.5391   61.1283 H   0  0  0  0  0  0  0  0  0  0  0  0
    3.2719   53.5880   60.9172 H   0  0  0  0  0  0  0  0  0  0  0  0
    6.4759   49.1328   61.5098 H   0  0  0  0  0  0  0  0  0  0  0  0
    1.9690   48.1526   59.4891 H   0  0  0  0  0  0  0  0  0  0  0  0
    0.2298   52.2424   58.2640 H   0  0  0  0  0  0  0  0  0  0  0  0
    1.4170   50.1137   57.9517 H   0  0  0  0  0  0  0  0  0  0  0  0
    6.1613   45.1585   58.0063 H   0  0  0  0  0  0  0  0  0  0  0  0
    0.0858   44.3526   58.6739 H   0  0  0  0  0  0  0  0  0  0  0  0
    0.5239   43.6678   56.5123 H   0  0  0  0  0  0  0  0  0  0  0  0
    2.2004   44.3206   56.6135 H   0  0  0  0  0  0  0  0  0  0  0  0
    1.7097   42.9076   57.6280 H   0  0  0  0  0  0  0  0  0  0  0  0
    7.0745   51.9008   64.7477 H   0  0  0  0  0  0  0  0  0  0  0  0
    6.7345   47.8579   65.5976 H   0  0  0  0  0  0  0  0  0  0  0  0
    6.4268   47.2977   63.1938 H   0  0  0  0  0  0  0  0  0  0  0  0
  1  2  1  0
  1  4  2  0
  1 16  1  0
  2 23  1  0
  2 30  1  0
  2 31  1  0
  3 23  1  0
  3 32  1  0
  3 33  1  0
  3 34  1  0
  4 21  1  0
  5  6  2  0
  5  8  1  0
  5 35  1  0
  6  7  1  0
  6 36  1  0
  7 16  2  0
  7 21  1  0
  8 15  1  0
  8 17  2  0
  9 10  1  0
  9 25  1  0
  9 37  1  0
  9 38  1  0
 10 11  1  0
 10 39  1  0
 10 40  1  0
 11 14  2  0
 11 26  1  0
 12 13  2  0
 12 15  1  0
 12 25  1  0
 13 18  1  0
 13 41  1  0
 14 29  1  0
 14 42  1  0
 15 20  2  0
 16 17  1  0
 17 43  1  0
 18 19  2  0
 18 22  1  0
 19 20  1  0
 19 44  1  0
 20 45  1  0
 21 46  1  0
 23 24  1  0
 23 47  1  0
 24 48  1  0
 24 49  1  0
 24 50  1  0
 26 27  2  0
 26 51  1  0
 27 28  1  0
 28 29  2  0
 28 52  1  0
 29 53  1  0
M  CHG  1  23   1
M  END
$$$$
