4LZS_ligand
     RDKit          3D

 15 15  0  0  1  0  0  0  0  0999 V2000
   12.6053   38.5463   77.5412 C   0  0  0  0  0  0  0  0  0  0  0  0
   11.6231   37.6761   76.9782 C   0  0  0  0  0  0  0  0  0  0  0  0
   10.4333   37.9125   77.6913 C   0  0  0  0  0  0  0  0  0  0  0  0
   11.9656   39.3844   78.4567 C   0  0  0  0  0  0  0  0  0  0  0  0
   14.0382   38.6231   77.2281 C   0  0  0  0  0  0  0  0  0  0  0  0
    9.1276   37.3103   77.5374 C   0  0  0  0  0  0  0  0  0  0  0  0
   12.4331   40.5687   79.2760 C   0  0  0  0  0  0  0  0  0  0  0  0
   14.7699   37.3875   76.7218 C   0  0  0  0  0  0  0  0  0  0  0  0
   11.9721   37.4107   74.4793 C   0  0  0  0  0  0  0  0  0  0  0  0
   11.8017   36.6891   75.8265 C   0  0  0  0  0  0  0  0  0  0  0  0
   10.6864   38.9289   78.5753 N   0  0  0  0  0  0  0  0  0  0  0  0
    8.3631   37.3142   78.6443 N   0  0  0  0  0  0  0  0  0  0  0  0
   14.6973   39.6453   77.4063 O   0  0  0  0  0  0  0  0  0  0  0  0
    8.7427   36.8848   76.4484 O   0  0  0  0  0  0  0  0  0  0  0  0
    7.0112   36.7724   78.7029 C   0  0  0  0  0  0  0  0  0  0  0  0
  1  2  1  0
  1  4  2  0
  1  5  1  0
  2  3  2  0
  2 10  1  0
  3  6  1  0
  3 11  1  0
  4  7  1  0
  4 11  1  0
  5  8  1  0
  5 13  2  0
  6 12  1  0
  6 14  2  0
  9 10  1  0
 12 15  1  0
M  END
$$$$
