7C6P - prepared_ligand
     RDKit          3D

 31 33  0  0  1  0  0  0  0  0999 V2000
    3.6594  -14.6631   -7.7914 C   0  0  0  0  0  0  0  0  0  0  0  0
    3.8356  -17.5295  -10.8122 C   0  0  0  0  0  0  0  0  0  0  0  0
    4.4666  -16.3355  -10.8939 C   0  0  0  0  0  0  0  0  0  0  0  0
    5.3091  -15.8696  -12.0292 C   0  0  0  0  0  0  0  0  0  0  0  0
    5.8185  -16.7650  -12.9826 C   0  0  0  0  0  0  0  0  0  0  0  0
    6.5853  -16.3139  -14.0585 C   0  0  0  0  0  0  0  0  0  0  0  0
    6.8538  -14.9488  -14.2012 C   0  0  0  0  0  0  0  0  0  0  0  0
    6.3581  -14.0463  -13.2632 C   0  0  0  0  0  0  0  0  0  0  0  0
    5.5945  -14.5040  -12.1912 C   0  0  0  0  0  0  0  0  0  0  0  0
    3.7030  -15.6710   -8.7560 C   0  0  0  0  0  0  0  0  0  0  0  0
    3.0214  -16.8857   -8.5738 C   0  0  0  0  0  0  0  0  0  0  0  0
    2.3175  -17.0871   -7.3792 C   0  0  0  0  0  0  0  0  0  0  0  0
    2.2709  -16.0842   -6.4117 C   0  0  0  0  0  0  0  0  0  0  0  0
    2.9150  -14.8651   -6.6277 C   0  0  0  0  0  0  0  0  0  0  0  0
    3.0638  -17.9278   -9.6414 C   0  0  0  0  0  0  0  0  0  0  0  0
    4.4478  -15.4169   -9.8907 O   0  0  0  0  0  0  0  0  0  0  0  0
    7.0684  -17.2164  -14.9706 O   0  0  0  0  0  0  0  0  0  0  0  0
    7.5942  -14.4840  -15.2587 O   0  0  0  0  0  0  0  0  0  0  0  0
    2.4972  -19.0139   -9.5287 O   0  0  0  0  0  0  0  0  0  0  0  0
    2.8226  -13.8727   -5.6896 O   0  0  0  0  0  0  0  0  0  0  0  0
    4.3551  -13.4926   -7.9813 O   0  0  0  0  0  0  0  0  0  0  0  0
    3.8943  -18.2158  -11.6404 H   0  0  0  0  0  0  0  0  0  0  0  0
    5.6305  -17.8241  -12.8957 H   0  0  0  0  0  0  0  0  0  0  0  0
    6.5510  -12.9881  -13.3662 H   0  0  0  0  0  0  0  0  0  0  0  0
    5.2163  -13.7746  -11.4910 H   0  0  0  0  0  0  0  0  0  0  0  0
    1.7921  -18.0140   -7.1928 H   0  0  0  0  0  0  0  0  0  0  0  0
    1.7158  -16.2567   -5.5019 H   0  0  0  0  0  0  0  0  0  0  0  0
    7.5191  -16.7719  -15.6946 H   0  0  0  0  0  0  0  0  0  0  0  0
    7.6697  -13.5267  -15.2755 H   0  0  0  0  0  0  0  0  0  0  0  0
    2.3724  -14.1595   -4.8881 H   0  0  0  0  0  0  0  0  0  0  0  0
    4.8603  -13.4847   -8.7987 H   0  0  0  0  0  0  0  0  0  0  0  0
  1 10  2  0
  1 14  1  0
  1 21  1  0
  2  3  2  0
  2 15  1  0
  2 22  1  0
  3  4  1  0
  3 16  1  0
  4  5  2  0
  4  9  1  0
  5  6  1  0
  5 23  1  0
  6  7  2  0
  6 17  1  0
  7  8  1  0
  7 18  1  0
  8  9  2  0
  8 24  1  0
  9 25  1  0
 10 11  1  0
 10 16  1  0
 11 12  2  0
 11 15  1  0
 12 13  1  0
 12 26  1  0
 13 14  2  0
 13 27  1  0
 14 20  1  0
 15 19  2  0
 17 28  1  0
 18 29  1  0
 20 30  1  0
 21 31  1  0
M  END
$$$$
