1SQN - prepared_ligand2
     RDKit          3D

 48 51  0  0  1  0  0  0  0  0999 V2000
   13.8023   27.5522    3.1897 O   0  0  0  0  0  0  0  0  0  0  0  0
   13.1937   26.7436    3.8870 C   0  0  0  0  0  0  0  0  0  0  0  0
   11.6794   26.5509    3.7842 C   0  0  0  0  0  0  0  0  0  0  0  0
   13.8765   25.8212    4.7783 C   0  0  0  0  0  0  0  0  0  0  0  0
   13.2524   25.0635    5.7084 C   0  0  0  0  0  0  0  0  0  0  0  0
   14.0058   24.0274    6.5429 C   0  0  0  0  0  0  0  0  0  0  0  0
   11.7278   25.1381    5.9746 C   0  0  2  0  0  0  0  0  0  0  0  0
   11.0653   26.2916    5.1656 C   0  0  0  0  0  0  0  0  0  0  0  0
   11.4578   25.2709    7.5053 C   0  0  2  0  0  0  0  0  0  0  0  0
   12.1824   24.1481    8.3118 C   0  0  1  0  0  0  0  0  0  0  0  0
   13.6957   24.2335    8.0302 C   0  0  0  0  0  0  0  0  0  0  0  0
    9.9394   25.3015    7.8401 C   0  0  0  0  0  0  0  0  0  0  0  0
    9.7059   25.4901    9.3574 C   0  0  0  0  0  0  0  0  0  0  0  0
   10.3558   24.3270   10.1630 C   0  0  2  0  0  0  0  0  0  0  0  0
   11.8751   24.3362    9.8232 C   0  0  1  0  0  0  0  0  0  0  0  0
    9.6420   22.9907    9.7746 C   0  0  0  0  0  0  0  0  0  0  0  0
   10.4237   24.4625   11.7335 C   0  0  1  0  0  0  0  0  0  0  0  0
    9.2366   24.0642   12.3977 O   0  0  0  0  0  0  0  0  0  0  0  0
   11.6040   23.5098   12.0968 C   0  0  0  0  0  0  0  0  0  0  0  0
   12.5156   23.4035   10.8569 C   0  0  0  0  0  0  0  0  0  0  0  0
   10.7180   25.8348   12.2182 C   0  0  0  0  0  0  0  0  0  0  0  0
   11.0297   26.9647   12.5712 C   0  0  0  0  0  0  0  0  0  0  0  0
   11.5089   25.6841    3.1462 H   0  0  0  0  0  0  0  0  0  0  0  0
   11.2293   27.4089    3.2901 H   0  0  0  0  0  0  0  0  0  0  0  0
   14.9445   25.7069    4.6734 H   0  0  0  0  0  0  0  0  0  0  0  0
   15.0816   24.1038    6.3809 H   0  0  0  0  0  0  0  0  0  0  0  0
   13.7288   23.0167    6.2385 H   0  0  0  0  0  0  0  0  0  0  0  0
   11.2971   24.1954    5.6315 H   0  0  0  0  0  0  0  0  0  0  0  0
   10.0084   26.0661    5.0265 H   0  0  0  0  0  0  0  0  0  0  0  0
   11.0930   27.2196    5.7399 H   0  0  0  0  0  0  0  0  0  0  0  0
   11.8709   26.2268    7.8385 H   0  0  0  0  0  0  0  0  0  0  0  0
   11.8187   23.1775    7.9729 H   0  0  0  0  0  0  0  0  0  0  0  0
   14.0741   25.2008    8.3603 H   0  0  0  0  0  0  0  0  0  0  0  0
   14.2362   23.5027    8.6331 H   0  0  0  0  0  0  0  0  0  0  0  0
    9.4455   24.4063    7.4634 H   0  0  0  0  0  0  0  0  0  0  0  0
    9.4520   26.1080    7.3008 H   0  0  0  0  0  0  0  0  0  0  0  0
    8.6391   25.5528    9.5722 H   0  0  0  0  0  0  0  0  0  0  0  0
   10.1219   26.4533    9.6538 H   0  0  0  0  0  0  0  0  0  0  0  0
   12.2694   25.3306   10.0525 H   0  0  0  0  0  0  0  0  0  0  0  0
    9.9749   22.1661   10.3945 H   0  0  0  0  0  0  0  0  0  0  0  0
    8.5624   23.0665    9.9120 H   0  0  0  0  0  0  0  0  0  0  0  0
    9.8081   22.6795    8.7457 H   0  0  0  0  0  0  0  0  0  0  0  0
    8.5240   24.6566   12.1334 H   0  0  0  0  0  0  0  0  0  0  0  0
   11.2291   22.5150   12.3363 H   0  0  0  0  0  0  0  0  0  0  0  0
   12.1625   23.8119   12.9816 H   0  0  0  0  0  0  0  0  0  0  0  0
   13.5391   23.7014   11.0890 H   0  0  0  0  0  0  0  0  0  0  0  0
   12.5418   22.3801   10.4874 H   0  0  0  0  0  0  0  0  0  0  0  0
   11.3091   27.9441   12.8817 H   0  0  0  0  0  0  0  0  0  0  0  0
  1  2  2  0
  2  3  1  0
  2  4  1  0
  3  8  1  0
  3 23  1  0
  3 24  1  0
  4  5  2  0
  4 25  1  0
  5  6  1  0
  5  7  1  0
  6 11  1  0
  6 26  1  0
  6 27  1  0
  7  8  1  0
  7  9  1  0
  7 28  1  6
  8 29  1  0
  8 30  1  0
  9 10  1  0
  9 12  1  0
  9 31  1  1
 10 11  1  0
 10 15  1  0
 10 32  1  6
 11 33  1  0
 11 34  1  0
 12 13  1  0
 12 35  1  0
 12 36  1  0
 13 14  1  0
 13 37  1  0
 13 38  1  0
 14 15  1  0
 14 16  1  1
 14 17  1  0
 15 20  1  0
 15 39  1  1
 16 40  1  0
 16 41  1  0
 16 42  1  0
 17 18  1  0
 17 19  1  0
 17 21  1  6
 18 43  1  0
 19 20  1  0
 19 44  1  0
 19 45  1  0
 20 46  1  0
 20 47  1  0
 21 22  3  0
 22 48  1  0
M  END
$$$$
