7KC5 - prepared_ligand2
     RDKit          3D

 55 59  0  0  1  0  0  0  0  0999 V2000
   -7.3435  -21.9280   15.0958 C   0  0  0  0  0  0  0  0  0  0  0  0
   -6.0541  -21.6724   15.5605 C   0  0  0  0  0  0  0  0  0  0  0  0
   -5.6753  -20.3776   15.9464 C   0  0  0  0  0  0  0  0  0  0  0  0
   -6.6265  -19.3463   15.8683 C   0  0  0  0  0  0  0  0  0  0  0  0
   -7.9211  -19.6068   15.4186 C   0  0  0  0  0  0  0  0  0  0  0  0
   -8.2784  -20.8965   15.0293 C   0  0  0  0  0  0  0  0  0  0  0  0
   -9.0835  -18.3353   15.3546 Cl  0  0  0  0  0  0  0  0  0  0  0  0
   -4.3783  -20.1240   16.4660 N   0  0  0  0  0  0  0  0  0  0  0  0
   -3.8204  -20.8523   17.4799 C   0  0  0  0  0  0  0  0  0  0  0  0
   -2.6539  -20.2536   17.7801 N   0  0  0  0  0  0  0  0  0  0  0  0
   -2.4917  -18.9876   17.1193 C   0  0  2  0  0  0  0  0  0  0  0  0
   -3.6169  -19.0615   16.0987 C   0  0  0  0  0  0  0  0  0  0  0  0
   -3.8182  -18.2551   15.1871 O   0  0  0  0  0  0  0  0  0  0  0  0
   -1.1211  -18.7355   16.4426 C   0  0  0  0  0  0  0  0  0  0  0  0
   -0.8065  -17.3047   16.4114 N   0  0  0  0  0  0  0  0  0  0  0  0
   -1.7754  -16.6434   17.2788 C   0  0  0  0  0  0  0  0  0  0  0  0
   -2.5456  -17.7388   18.0305 C   0  0  1  0  0  0  0  0  0  0  0  0
   -3.9223  -17.3739   18.6137 C   0  0  0  0  0  0  0  0  0  0  0  0
   -4.3376  -17.9839   19.8014 C   0  0  0  0  0  0  0  0  0  0  0  0
   -5.6267  -17.7781   20.2807 C   0  0  0  0  0  0  0  0  0  0  0  0
   -6.5079  -16.9500   19.5846 C   0  0  0  0  0  0  0  0  0  0  0  0
   -6.0972  -16.3266   18.4061 C   0  0  0  0  0  0  0  0  0  0  0  0
   -4.8086  -16.5360   17.9246 C   0  0  0  0  0  0  0  0  0  0  0  0
   -7.8621  -16.7482   20.0785 C   0  0  0  0  0  0  0  0  0  0  0  0
   -8.9397  -16.5901   20.4706 N   0  0  0  0  0  0  0  0  0  0  0  0
    0.3918  -16.7333   15.9566 C   0  0  0  0  0  0  0  0  0  0  0  0
    1.2895  -17.5692   15.3697 N   0  0  0  0  0  0  0  0  0  0  0  0
    2.4820  -17.0650   14.9644 C   0  0  0  0  0  0  0  0  0  0  0  0
    2.8494  -15.7140   15.1033 C   0  0  0  0  0  0  0  0  0  0  0  0
    1.8808  -14.8611   15.6675 C   0  0  0  0  0  0  0  0  0  0  0  0
    0.6502  -15.3642   16.0896 C   0  0  0  0  0  0  0  0  0  0  0  0
    4.2044  -15.2060   14.6640 C   0  0  0  0  0  0  0  0  0  0  0  0
    4.4541  -13.9834   14.7867 O   0  0  0  0  0  0  0  0  0  0  0  0
    5.0240  -16.0217   14.1797 O   0  0  0  0  0  0  0  0  0  0  0  0
   -1.6510  -20.8706   18.6516 C   0  0  0  0  0  0  0  0  0  0  0  0
   -4.2841  -21.8575   18.0238 O   0  0  0  0  0  0  0  0  0  0  0  0
   -7.7791  -23.5231   14.6087 Cl  0  0  0  0  0  0  0  0  0  0  0  0
   -5.3519  -22.4882   15.6319 H   0  0  0  0  0  0  0  0  0  0  0  0
   -6.3727  -18.3423   16.1761 H   0  0  0  0  0  0  0  0  0  0  0  0
   -9.2794  -21.0944   14.6765 H   0  0  0  0  0  0  0  0  0  0  0  0
   -1.0524  -19.1641   15.4416 H   0  0  0  0  0  0  0  0  0  0  0  0
   -0.3293  -19.2093   17.0239 H   0  0  0  0  0  0  0  0  0  0  0  0
   -2.4598  -16.0611   16.6658 H   0  0  0  0  0  0  0  0  0  0  0  0
   -1.3255  -15.9904   18.0282 H   0  0  0  0  0  0  0  0  0  0  0  0
   -1.9435  -17.9259   18.9231 H   0  0  0  0  0  0  0  0  0  0  0  0
   -3.6741  -18.6478   20.3372 H   0  0  0  0  0  0  0  0  0  0  0  0
   -5.9299  -18.2750   21.1877 H   0  0  0  0  0  0  0  0  0  0  0  0
   -6.7728  -15.6989   17.8426 H   0  0  0  0  0  0  0  0  0  0  0  0
   -4.5339  -16.0796   16.9864 H   0  0  0  0  0  0  0  0  0  0  0  0
    3.1520  -17.7908   14.5245 H   0  0  0  0  0  0  0  0  0  0  0  0
    2.0704  -13.8047   15.7939 H   0  0  0  0  0  0  0  0  0  0  0  0
   -0.0727  -14.6934   16.5290 H   0  0  0  0  0  0  0  0  0  0  0  0
   -0.7337  -21.0701   18.0977 H   0  0  0  0  0  0  0  0  0  0  0  0
   -1.4111  -20.2042   19.4793 H   0  0  0  0  0  0  0  0  0  0  0  0
   -1.9883  -21.8182   19.0729 H   0  0  0  0  0  0  0  0  0  0  0  0
  1  2  2  0
  1  6  1  0
  1 37  1  0
  2  3  1  0
  2 38  1  0
  3  4  2  0
  3  8  1  0
  4  5  1  0
  4 39  1  0
  5  6  2  0
  5  7  1  0
  6 40  1  0
  8  9  1  0
  8 12  1  0
  9 10  1  0
  9 36  2  0
 11 10  1  1
 10 35  1  0
 11 12  1  0
 11 14  1  0
 11 17  1  0
 12 13  2  0
 14 15  1  0
 14 41  1  0
 14 42  1  0
 15 16  1  0
 15 26  1  0
 16 17  1  0
 16 43  1  0
 16 44  1  0
 17 18  1  0
 17 45  1  1
 18 19  2  0
 18 23  1  0
 19 20  1  0
 19 46  1  0
 20 21  2  0
 20 47  1  0
 21 22  1  0
 21 24  1  0
 22 23  2  0
 22 48  1  0
 23 49  1  0
 24 25  3  0
 26 27  2  0
 26 31  1  0
 27 28  1  0
 28 29  2  0
 28 50  1  0
 29 30  1  0
 29 32  1  0
 30 31  2  0
 30 51  1  0
 31 52  1  0
 32 33  2  0
 32 34  1  0
 35 53  1  0
 35 54  1  0
 35 55  1  0
M  CHG  1  34  -1
M  END
$$$$
