7TBU - prepared_ligand2
     RDKit          3D

 24 24  0  0  1  0  0  0  0  0999 V2000
   18.8031  108.5881   20.5114 C   0  0  0  0  0  0  0  0  0  0  0  0
   19.5399  109.6684   20.8820 C   0  0  0  0  0  0  0  0  0  0  0  0
   19.9747  110.7990   19.9664 C   0  0  2  0  0  0  0  0  0  0  0  0
   19.1762  110.7808   18.6371 C   0  0  2  0  0  0  0  0  0  0  0  0
   19.0298  109.3491   18.0736 C   0  0  1  0  0  0  0  0  0  0  0  0
   18.3036  108.4123   19.0661 C   0  0  0  0  0  0  0  0  0  0  0  0
   18.4572  107.4513   21.5515 C   0  0  0  0  0  0  0  0  0  0  0  0
   21.3664  110.6399   19.7557 O   0  0  0  0  0  0  0  0  0  0  0  0
   19.7305  111.6805   17.6922 O   0  0  0  0  0  0  0  0  0  0  0  0
   18.3819  109.3176   16.8159 O   0  0  0  0  0  0  0  0  0  0  0  0
   18.8535  107.6169   22.7247 O   0  0  0  0  0  0  0  0  0  0  0  0
   17.8038  106.4761   21.1177 O   0  0  0  0  0  0  0  0  0  0  0  0
   22.4691  112.0014   19.8103 P   0  0  0  0  0  0  0  0  0  0  0  0
   21.8267  113.1078   18.9535 O   0  0  0  0  0  0  0  0  0  0  0  0
   23.7953  111.4684   19.2400 O   0  0  0  0  0  0  0  0  0  0  0  0
   22.5793  112.3947   21.2930 O   0  0  0  0  0  0  0  0  0  0  0  0
   19.8944  109.7416   21.8990 H   0  0  0  0  0  0  0  0  0  0  0  0
   19.8127  111.7418   20.4929 H   0  0  0  0  0  0  0  0  0  0  0  0
   18.1812  111.1737   18.8512 H   0  0  0  0  0  0  0  0  0  0  0  0
   20.0240  108.9392   17.8891 H   0  0  0  0  0  0  0  0  0  0  0  0
   17.2291  108.6060   19.0532 H   0  0  0  0  0  0  0  0  0  0  0  0
   18.4411  107.3844   18.7292 H   0  0  0  0  0  0  0  0  0  0  0  0
   20.3393  112.2722   18.1555 H   0  0  0  0  0  0  0  0  0  0  0  0
   18.6722  110.0886   16.3204 H   0  0  0  0  0  0  0  0  0  0  0  0
  1  2  2  0
  1  6  1  0
  1  7  1  0
  2  3  1  0
  2 17  1  0
  3  4  1  0
  3  8  1  0
  3 18  1  1
  4  5  1  0
  4  9  1  0
  4 19  1  1
  5  6  1  0
  5 10  1  0
  5 20  1  6
  6 21  1  0
  6 22  1  0
  7 11  1  0
  7 12  2  0
  8 13  1  0
  9 23  1  0
 10 24  1  0
 13 14  2  0
 13 15  1  0
 13 16  1  0
M  CHG  3  11  -1  15  -1  16  -1
M  END
$$$$
