7CD9 - prepared_ligand2
     RDKit          3D

 63 67  0  0  1  0  0  0  0  0999 V2000
   16.2533   11.0195   20.7344 C   0  0  0  0  0  0  0  0  0  0  0  0
   15.4786   10.9063   19.4058 C   0  0  1  0  0  0  0  0  0  0  0  0
   16.3790   10.3504   18.2822 C   0  0  0  0  0  0  0  0  0  0  0  0
   13.0765   10.8055   20.1495 C   0  0  0  0  0  0  0  0  0  0  0  0
   10.7681   10.5002   21.0586 C   0  0  0  0  0  0  0  0  0  0  0  0
   10.7850   11.9547   21.0933 C   0  0  0  0  0  0  0  0  0  0  0  0
   11.9076   12.6797   20.7294 C   0  0  0  0  0  0  0  0  0  0  0  0
   11.6318   14.0314   20.9691 C   0  0  0  0  0  0  0  0  0  0  0  0
   20.3342   10.0833   14.9362 C   0  0  0  0  0  0  0  0  0  0  0  0
   19.9006   11.4021   15.0575 C   0  0  0  0  0  0  0  0  0  0  0  0
   19.0241   11.7653   16.0737 C   0  0  0  0  0  0  0  0  0  0  0  0
   18.5678   10.8077   16.9847 C   0  0  0  0  0  0  0  0  0  0  0  0
   18.9965    9.4831   16.8670 C   0  0  0  0  0  0  0  0  0  0  0  0
   19.8714    9.1210   15.8479 C   0  0  0  0  0  0  0  0  0  0  0  0
   17.6423   11.2329   18.1218 C   0  0  2  0  0  0  0  0  0  0  0  0
   18.4220   11.3774   19.4495 C   0  0  0  0  0  0  0  0  0  0  0  0
   10.3193   14.1185   21.4111 C   0  0  0  0  0  0  0  0  0  0  0  0
   12.0814    8.5476   20.5592 C   0  0  0  0  0  0  0  0  0  0  0  0
   18.2117   12.1241   21.8723 C   0  0  0  0  0  0  0  0  0  0  0  0
   21.7029    8.5037   13.7142 C   0  0  0  0  0  0  0  0  0  0  0  0
   22.9074    8.5323   12.7920 C   0  0  0  0  0  0  0  0  0  0  0  0
   24.0866    9.1271   13.2369 C   0  0  0  0  0  0  0  0  0  0  0  0
   25.2268    9.1132   12.4406 C   0  0  0  0  0  0  0  0  0  0  0  0
   25.1804    8.5011   11.1915 C   0  0  0  0  0  0  0  0  0  0  0  0
   24.0042    7.9090   10.7387 C   0  0  0  0  0  0  0  0  0  0  0  0
   22.8620    7.9309   11.5343 C   0  0  0  0  0  0  0  0  0  0  0  0
   17.4767   11.9325   20.5359 N   0  0  2  0  0  0  0  0  0  0  0  0
   14.2241   10.1758   19.5732 N   0  0  0  0  0  0  0  0  0  0  0  0
   11.9898   10.0229   20.5776 N   0  0  0  0  0  0  0  0  0  0  0  0
   13.0335   12.0951   20.2524 N   0  0  0  0  0  0  0  0  0  0  0  0
    9.8145   12.8443   21.4706 N   0  0  0  0  0  0  0  0  0  0  0  0
    9.8248    9.7875   21.4131 O   0  0  0  0  0  0  0  0  0  0  0  0
   21.2175    9.8270   13.9067 O   0  0  0  0  0  0  0  0  0  0  0  0
   16.6395   10.0613   21.0677 H   0  0  0  0  0  0  0  0  0  0  0  0
   15.6536   11.4696   21.5245 H   0  0  0  0  0  0  0  0  0  0  0  0
   15.2442   11.9254   19.0930 H   0  0  0  0  0  0  0  0  0  0  0  0
   15.8079   10.3545   17.3548 H   0  0  0  0  0  0  0  0  0  0  0  0
   16.6456    9.3192   18.5089 H   0  0  0  0  0  0  0  0  0  0  0  0
   12.3162   14.8543   20.8268 H   0  0  0  0  0  0  0  0  0  0  0  0
   20.2491   12.1506   14.3614 H   0  0  0  0  0  0  0  0  0  0  0  0
   18.7090   12.7963   16.1518 H   0  0  0  0  0  0  0  0  0  0  0  0
   18.6631    8.7308   17.5659 H   0  0  0  0  0  0  0  0  0  0  0  0
   20.1764    8.0885   15.7856 H   0  0  0  0  0  0  0  0  0  0  0  0
   17.2865   12.2239   17.8335 H   0  0  0  0  0  0  0  0  0  0  0  0
   19.2329   12.0962   19.3646 H   0  0  0  0  0  0  0  0  0  0  0  0
   18.8127   10.4277   19.8174 H   0  0  0  0  0  0  0  0  0  0  0  0
    9.7117   14.9645   21.6984 H   0  0  0  0  0  0  0  0  0  0  0  0
   11.6608    8.0994   21.4611 H   0  0  0  0  0  0  0  0  0  0  0  0
   11.5516    8.1443   19.6973 H   0  0  0  0  0  0  0  0  0  0  0  0
   13.1074    8.1881   20.5051 H   0  0  0  0  0  0  0  0  0  0  0  0
   19.0486   12.7946   21.6912 H   0  0  0  0  0  0  0  0  0  0  0  0
   17.4963   12.5799   22.5553 H   0  0  0  0  0  0  0  0  0  0  0  0
   18.5402   11.1485   22.2271 H   0  0  0  0  0  0  0  0  0  0  0  0
   22.0397    8.0780   14.6564 H   0  0  0  0  0  0  0  0  0  0  0  0
   20.9181    7.8584   13.3191 H   0  0  0  0  0  0  0  0  0  0  0  0
   24.1148    9.5692   14.2163 H   0  0  0  0  0  0  0  0  0  0  0  0
   26.1412    9.5648   12.7955 H   0  0  0  0  0  0  0  0  0  0  0  0
   26.0618    8.4812   10.5680 H   0  0  0  0  0  0  0  0  0  0  0  0
   23.9819    7.4264    9.7769 H   0  0  0  0  0  0  0  0  0  0  0  0
   21.9541    7.4697   11.1784 H   0  0  0  0  0  0  0  0  0  0  0  0
   17.1364   12.8359   20.2187 H   0  0  0  0  0  0  0  0  0  0  0  0
   14.3673    9.2001   19.7924 H   0  0  0  0  0  0  0  0  0  0  0  0
    8.8815   12.5946   21.7783 H   0  0  0  0  0  0  0  0  0  0  0  0
  1  2  1  0
  1 27  1  0
  1 34  1  0
  1 35  1  0
  2  3  1  0
  2 28  1  0
  2 36  1  6
  3 15  1  0
  3 37  1  0
  3 38  1  0
  4 28  1  0
  4 29  1  0
  4 30  2  0
  5  6  1  0
  5 29  1  0
  5 32  2  0
  6  7  2  0
  6 31  1  0
  7  8  1  0
  7 30  1  0
  8 17  2  0
  8 39  1  0
  9 10  2  0
  9 14  1  0
  9 33  1  0
 10 11  1  0
 10 40  1  0
 11 12  2  0
 11 41  1  0
 12 13  1  0
 12 15  1  0
 13 14  2  0
 13 42  1  0
 14 43  1  0
 15 16  1  0
 15 44  1  6
 16 27  1  0
 16 45  1  0
 16 46  1  0
 17 31  1  0
 17 47  1  0
 18 29  1  0
 18 48  1  0
 18 49  1  0
 18 50  1  0
 19 27  1  0
 19 51  1  0
 19 52  1  0
 19 53  1  0
 20 21  1  0
 20 33  1  0
 20 54  1  0
 20 55  1  0
 21 22  2  0
 21 26  1  0
 22 23  1  0
 22 56  1  0
 23 24  2  0
 23 57  1  0
 24 25  1  0
 24 58  1  0
 25 26  2  0
 25 59  1  0
 26 60  1  0
 27 61  1  6
 28 62  1  0
 31 63  1  0
M  CHG  1  27   1
M  END
$$$$
