4IH7_ligand
     RDKit          3D

 17 18  0  0  1  0  0  0  0  0999 V2000
   32.2259   -5.4545    9.5023 O   0  0  0  0  0  0  0  0  0  0  0  0
   31.8319   -6.1277    8.5525 C   0  0  0  0  0  0  0  0  0  0  0  0
   30.7718   -5.6810    7.8215 N   0  0  0  0  0  0  0  0  0  0  0  0
   30.3090   -6.3194    6.7075 C   0  0  0  0  0  0  0  0  0  0  0  0
   30.8348   -7.4588    6.2285 C   0  0  0  0  0  0  0  0  0  0  0  0
   31.9559   -8.0115    6.9706 C   0  0  0  0  0  0  0  0  0  0  0  0
   32.4325   -7.4010    8.0934 C   0  0  0  0  0  0  0  0  0  0  0  0
   33.6294   -7.9579    8.7952 C   0  0  0  0  0  0  0  0  0  0  0  0
   33.7568   -7.9303   10.1920 C   0  0  0  0  0  0  0  0  0  0  0  0
   34.8860   -8.4499   10.8187 C   0  0  0  0  0  0  0  0  0  0  0  0
   35.9133   -9.0002   10.0575 C   0  0  0  0  0  0  0  0  0  0  0  0
   34.6650   -8.5462    8.0536 C   0  0  0  0  0  0  0  0  0  0  0  0
   35.8252   -9.0548    8.6586 C   0  0  0  0  0  0  0  0  0  0  0  0
   36.9894   -9.6484    7.8273 C   0  0  0  0  0  0  0  0  0  0  0  0
   36.6215   -9.8920    6.3383 C   0  0  0  0  0  0  0  0  0  0  0  0
   37.4182  -11.0168    8.4163 C   0  0  0  0  0  0  0  0  0  0  0  0
   38.1764   -8.6594    7.8640 C   0  0  0  0  0  0  0  0  0  0  0  0
  1  2  2  0
  2  3  1  0
  2  7  1  0
  3  4  1  0
  4  5  2  0
  5  6  1  0
  6  7  2  0
  7  8  1  0
  8  9  2  0
  8 12  1  0
  9 10  1  0
 10 11  2  0
 11 13  1  0
 12 13  2  0
 13 14  1  0
 14 15  1  0
 14 16  1  0
 14 17  1  0
M  END
$$$$
