3OE4_ligand
     RDKit          3D

 33 36  0  0  1  0  0  0  0  0999 V2000
   20.3813  -30.9005   13.3152 C   0  0  1  0  0  0  0  0  0  0  0  0
   19.1337  -31.7815   13.3881 C   0  0  2  0  0  0  0  0  0  0  0  0
   18.0489  -30.6932   13.3957 C   0  0  1  0  0  0  0  0  0  0  0  0
   18.5904  -29.5619   12.7760 O   0  0  0  0  0  0  0  0  0  0  0  0
   19.9363  -29.7784   12.3724 C   0  0  2  0  0  0  0  0  0  0  0  0
   20.0118  -30.1990   10.9132 C   0  0  0  0  0  0  0  0  0  0  0  0
   16.7857  -31.0220   12.7768 N   0  0  0  0  0  0  0  0  0  0  0  0
   20.8310  -30.4097   14.5694 O   0  0  0  0  0  0  0  0  0  0  0  0
   19.0337  -32.6465   14.5046 O   0  0  0  0  0  0  0  0  0  0  0  0
   20.8021  -29.6266    9.9963 C   0  0  0  0  0  0  0  0  0  0  0  0
   16.5535  -31.6321   11.5613 C   0  0  0  0  0  0  0  0  0  0  0  0
   15.2930  -31.7760   11.2355 N   0  0  0  0  0  0  0  0  0  0  0  0
   20.9148  -30.1067    8.5677 C   0  0  0  0  0  0  0  0  0  0  0  0
   21.8856  -29.3244    7.8182 N   0  0  0  0  0  0  0  0  0  0  0  0
   22.7467  -29.7886    6.9010 C   0  0  0  0  0  0  0  0  0  0  0  0
   23.7615  -28.8028    6.3034 C   0  0  0  0  0  0  0  0  0  0  0  0
   23.8273  -27.3889    6.5460 C   0  0  0  0  0  0  0  0  0  0  0  0
   24.8407  -26.6251    5.9225 C   0  0  0  0  0  0  0  0  0  0  0  0
   25.7591  -27.2366    5.0734 C   0  0  0  0  0  0  0  0  0  0  0  0
   25.7187  -28.6062    4.8234 C   0  0  0  0  0  0  0  0  0  0  0  0
   24.7213  -29.3617    5.4409 C   0  0  0  0  0  0  0  0  0  0  0  0
   26.7167  -29.2450    3.9296 N   0  0  0  0  0  0  0  0  0  0  0  0
   23.0141  -26.7525    7.3087 O   0  0  0  0  0  0  0  0  0  0  0  0
   24.9668  -25.2576    6.1013 O   0  0  0  0  0  0  0  0  0  0  0  0
   22.7311  -30.9733    6.5516 O   0  0  0  0  0  0  0  0  0  0  0  0
   27.5376  -28.5321    3.3601 O   0  0  0  0  0  0  0  0  0  0  0  0
   26.6881  -30.4643    3.7919 O   0  0  0  0  0  0  0  0  0  0  0  0
   15.5295  -30.6607   13.2246 C   0  0  0  0  0  0  0  0  0  0  0  0
   14.6304  -31.1831   12.2665 C   0  0  0  0  0  0  0  0  0  0  0  0
   13.2668  -31.0034   12.5266 C   0  0  0  0  0  0  0  0  0  0  0  0
   12.8630  -30.3631   13.6529 N   0  0  0  0  0  0  0  0  0  0  0  0
   13.8269  -29.8922   14.4833 C   0  0  0  0  0  0  0  0  0  0  0  0
   15.1751  -29.9991   14.3339 N   0  0  0  0  0  0  0  0  0  0  0  0
  1  2  1  0
  1  5  1  0
  1  8  1  1
  2  3  1  0
  2  9  1  1
  3  4  1  0
  3  7  1  6
  4  5  1  0
  5  6  1  6
  6 10  2  0
  7 11  1  0
  7 28  1  0
 10 13  1  0
 11 12  2  0
 12 29  1  0
 13 14  1  0
 14 15  1  0
 15 16  1  0
 15 25  2  0
 16 17  2  0
 16 21  1  0
 17 18  1  0
 17 23  1  0
 18 19  2  0
 18 24  1  0
 19 20  1  0
 20 21  2  0
 20 22  1  0
 22 26  2  0
 22 27  1  0
 28 29  2  0
 28 33  1  0
 29 30  1  0
 30 31  2  0
 31 32  1  0
 32 33  2  0
M  CHG  3  22   1  23  -1  27  -1
M  END
$$$$
