1OF6 - prepared_ligand9
     RDKit          3D

 24 24  0  0  1  0  0  0  0  0999 V2000
   64.0788   58.4261   71.7467 N   0  0  0  0  0  0  0  0  0  0  0  0
   63.8954   58.5357   73.2079 C   0  0  2  0  0  0  0  0  0  0  0  0
   62.6887   59.4564   73.4780 C   0  0  0  0  0  0  0  0  0  0  0  0
   61.9145   59.2544   74.4104 O   0  0  0  0  0  0  0  0  0  0  0  0
   65.1481   59.0811   73.9319 C   0  0  0  0  0  0  0  0  0  0  0  0
   66.4009   58.2378   73.7728 C   0  0  0  0  0  0  0  0  0  0  0  0
   67.5247   58.7580   73.0983 C   0  0  0  0  0  0  0  0  0  0  0  0
   66.4449   56.9275   74.2929 C   0  0  0  0  0  0  0  0  0  0  0  0
   68.6787   57.9700   72.9387 C   0  0  0  0  0  0  0  0  0  0  0  0
   67.5972   56.1372   74.1249 C   0  0  0  0  0  0  0  0  0  0  0  0
   68.7118   56.6570   73.4372 C   0  0  0  0  0  0  0  0  0  0  0  0
   69.8170   55.8899   73.2273 O   0  0  0  0  0  0  0  0  0  0  0  0
   62.6222   60.5079   72.6117 O   0  0  0  0  0  0  0  0  0  0  0  0
   64.9642   58.0053   71.4940 H   0  0  0  0  0  0  0  0  0  0  0  0
   63.3490   57.8864   71.2993 H   0  0  0  0  0  0  0  0  0  0  0  0
   63.6676   57.5519   73.6211 H   0  0  0  0  0  0  0  0  0  0  0  0
   64.9539   59.1622   75.0027 H   0  0  0  0  0  0  0  0  0  0  0  0
   65.3639   60.0975   73.5955 H   0  0  0  0  0  0  0  0  0  0  0  0
   67.5055   59.7556   72.6880 H   0  0  0  0  0  0  0  0  0  0  0  0
   65.5913   56.5173   74.8100 H   0  0  0  0  0  0  0  0  0  0  0  0
   69.5355   58.3654   72.4185 H   0  0  0  0  0  0  0  0  0  0  0  0
   67.6084   55.1306   74.5147 H   0  0  0  0  0  0  0  0  0  0  0  0
   69.7052   54.9873   73.5498 H   0  0  0  0  0  0  0  0  0  0  0  0
   63.3181   60.4234   71.9490 H   0  0  0  0  0  0  0  0  0  0  0  0
  1  2  1  0
  1 14  1  0
  1 15  1  0
  2  3  1  0
  2  5  1  0
  2 16  1  1
  3  4  2  0
  3 13  1  0
  5  6  1  0
  5 17  1  0
  5 18  1  0
  6  7  2  0
  6  8  1  0
  7  9  1  0
  7 19  1  0
  8 10  2  0
  8 20  1  0
  9 11  2  0
  9 21  1  0
 10 11  1  0
 10 22  1  0
 11 12  1  0
 12 23  1  0
 13 24  1  0
M  END
$$$$
