7ULC - prepared_ligand3
     RDKit          3D

 55 58  0  0  1  0  0  0  0  0999 V2000
   29.5383    3.2007   47.4135 N   0  0  0  0  0  0  0  0  0  0  0  0
   30.0482    4.9553   45.6226 C   0  0  1  0  0  0  0  0  0  0  0  0
   30.6630    4.1891   44.6081 O   0  0  0  0  0  0  0  0  0  0  0  0
   27.1502    8.3049   49.3293 P   0  0  0  0  0  0  0  0  0  0  0  0
   30.3388    4.3405   46.9866 C   0  0  1  0  0  0  0  0  0  0  0  0
   26.2044   -0.0901   47.8818 N   0  0  0  0  0  0  0  0  0  0  0  0
   23.4991   -0.2241   50.3078 O   0  0  0  0  0  0  0  0  0  0  0  0
   28.2029    2.9306   47.1779 C   0  0  0  0  0  0  0  0  0  0  0  0
   31.1965    2.1278   48.8084 N   0  0  0  0  0  0  0  0  0  0  0  0
   24.3464   -2.6827   51.3443 O   0  0  0  0  0  0  0  0  0  0  0  0
   27.7422    1.8467   47.9325 C   0  0  0  0  0  0  0  0  0  0  0  0
   32.6134    1.1765   50.3992 N   0  0  0  0  0  0  0  0  0  0  0  0
   28.2541   -0.4002   50.1710 O   0  0  0  0  0  0  0  0  0  0  0  0
   26.3172    1.3525   48.0452 C   0  0  0  0  0  0  0  0  0  0  0  0
   30.3590    0.4240   50.1402 N   0  0  0  0  0  0  0  0  0  0  0  0
   30.1528    5.3744   47.9049 O   0  0  0  0  0  0  0  0  0  0  0  0
   24.9133   -0.5915   48.3497 C   0  0  2  0  0  0  0  0  0  0  0  0
   28.5791    7.4207   48.8490 O   0  0  0  0  0  0  0  0  0  0  0  0
   24.7755   -0.6858   49.8848 C   0  0  2  0  0  0  0  0  0  0  0  0
   26.8046    7.8072   50.7394 O   0  0  0  0  0  0  0  0  0  0  0  0
   25.0729   -2.1536   50.2497 C   0  0  2  0  0  0  0  0  0  0  0  0
   24.7808   -2.8807   48.9573 C   0  0  0  0  0  0  0  0  0  0  0  0
   27.5352    9.7958   49.2997 O   0  0  0  0  0  0  0  0  0  0  0  0
   24.7104   -2.0279   47.9193 C   0  0  0  0  0  0  0  0  0  0  0  0
   32.0270    6.4509   45.6172 O   0  0  0  0  0  0  0  0  0  0  0  0
   28.8595    1.4182   48.6620 C   0  0  0  0  0  0  0  0  0  0  0  0
   29.9388    2.2190   48.2904 C   0  0  0  0  0  0  0  0  0  0  0  0
   31.3766    1.2671   49.7451 C   0  0  0  0  0  0  0  0  0  0  0  0
   29.0636    0.3909   49.6935 C   0  0  0  0  0  0  0  0  0  0  0  0
   30.2766    6.6599   47.3028 C   0  0  2  0  0  0  0  0  0  0  0  0
   28.9338    7.3789   47.4852 C   0  0  0  0  0  0  0  0  0  0  0  0
   30.6292    6.3549   45.8421 C   0  0  2  0  0  0  0  0  0  0  0  0
   26.0728    7.9480   48.2936 O   0  0  0  0  0  0  0  0  0  0  0  0
   28.9696    5.0245   45.4771 H   0  0  0  0  0  0  0  0  0  0  0  0
   29.9844    3.6467   44.1907 H   0  0  0  0  0  0  0  0  0  0  0  0
   31.3796    4.0180   47.0358 H   0  0  0  0  0  0  0  0  0  0  0  0
   26.2782   -0.2806   46.8865 H   0  0  0  0  0  0  0  0  0  0  0  0
   23.5352   -0.0662   51.2557 H   0  0  0  0  0  0  0  0  0  0  0  0
   27.6378    3.5837   46.5317 H   0  0  0  0  0  0  0  0  0  0  0  0
   23.4089   -2.6230   51.1431 H   0  0  0  0  0  0  0  0  0  0  0  0
   32.8510    0.3146   50.8763 H   0  0  0  0  0  0  0  0  0  0  0  0
   33.4206    1.6107   49.9758 H   0  0  0  0  0  0  0  0  0  0  0  0
   25.9135    1.6547   49.0087 H   0  0  0  0  0  0  0  0  0  0  0  0
   25.7033    1.8261   47.2888 H   0  0  0  0  0  0  0  0  0  0  0  0
   30.5807   -0.2642   50.8470 H   0  0  0  0  0  0  0  0  0  0  0  0
   24.1134    0.0246   47.9349 H   0  0  0  0  0  0  0  0  0  0  0  0
   25.5113   -0.0588   50.3903 H   0  0  0  0  0  0  0  0  0  0  0  0
   26.1365   -2.2629   50.4652 H   0  0  0  0  0  0  0  0  0  0  0  0
   24.7158   -3.9575   48.9057 H   0  0  0  0  0  0  0  0  0  0  0  0
   24.5618   -2.2908   46.8824 H   0  0  0  0  0  0  0  0  0  0  0  0
   32.4687    5.9225   46.2850 H   0  0  0  0  0  0  0  0  0  0  0  0
   31.0634    7.2255   47.8064 H   0  0  0  0  0  0  0  0  0  0  0  0
   28.9893    8.3935   47.0947 H   0  0  0  0  0  0  0  0  0  0  0  0
   28.1470    6.8685   46.9278 H   0  0  0  0  0  0  0  0  0  0  0  0
   30.1468    7.0632   45.1667 H   0  0  0  0  0  0  0  0  0  0  0  0
  1  5  1  0
  1  8  1  0
  1 27  1  0
  2  3  1  0
  2  5  1  0
  2 32  1  0
  2 34  1  6
  3 35  1  0
  4 18  1  0
  4 20  1  0
  4 23  2  0
  4 33  1  0
  5 16  1  0
  5 36  1  6
  6 14  1  0
  6 17  1  0
  6 37  1  0
  7 19  1  0
  7 38  1  0
  8 11  2  0
  8 39  1  0
  9 27  1  0
  9 28  2  0
 10 21  1  0
 10 40  1  0
 11 14  1  0
 11 26  1  0
 12 28  1  0
 12 41  1  0
 12 42  1  0
 13 29  2  0
 14 43  1  0
 14 44  1  0
 15 28  1  0
 15 29  1  0
 15 45  1  0
 16 30  1  0
 17 19  1  0
 17 24  1  0
 17 46  1  6
 18 31  1  0
 19 21  1  0
 19 47  1  1
 21 22  1  0
 21 48  1  1
 22 24  2  0
 22 49  1  0
 24 50  1  0
 25 32  1  0
 25 51  1  0
 26 27  2  0
 26 29  1  0
 30 31  1  0
 30 32  1  0
 30 52  1  1
 31 53  1  0
 31 54  1  0
 32 55  1  6
M  CHG  2  20  -1  33  -1
M  END
$$$$
