1Q4G - prepared_ligand6
     RDKit          3D

 30 31  0  0  1  0  0  0  0  0999 V2000
   69.0538   22.2541  190.7504 C   0  0  0  0  0  0  0  0  0  0  0  0
   68.1721   26.0149  187.3105 C   0  0  0  0  0  0  0  0  0  0  0  0
   67.2896   24.9665  187.0772 C   0  0  0  0  0  0  0  0  0  0  0  0
   67.2334   23.9024  187.9718 C   0  0  0  0  0  0  0  0  0  0  0  0
   67.5507   19.6553  193.1142 C   0  0  1  0  0  0  0  0  0  0  0  0
   67.2464   20.2826  194.5005 C   0  0  0  0  0  0  0  0  0  0  0  0
   66.5325   18.5376  192.7786 C   0  0  0  0  0  0  0  0  0  0  0  0
   68.9254   21.2499  191.7061 C   0  0  0  0  0  0  0  0  0  0  0  0
   67.6636   20.7510  192.0433 C   0  0  0  0  0  0  0  0  0  0  0  0
   66.5315   21.2680  191.4054 C   0  0  0  0  0  0  0  0  0  0  0  0
   66.6647   22.2592  190.4384 C   0  0  0  0  0  0  0  0  0  0  0  0
   67.9245   22.7746  190.1065 C   0  0  0  0  0  0  0  0  0  0  0  0
   68.0481   23.8782  189.1104 C   0  0  0  0  0  0  0  0  0  0  0  0
   68.9598   24.9248  189.3074 C   0  0  0  0  0  0  0  0  0  0  0  0
   69.0229   25.9881  188.4114 C   0  0  0  0  0  0  0  0  0  0  0  0
   66.1209   20.7906  194.7023 O   0  0  0  0  0  0  0  0  0  0  0  0
   68.1432   20.2303  195.3705 O   0  0  0  0  0  0  0  0  0  0  0  0
   70.0402   22.6270  190.5146 H   0  0  0  0  0  0  0  0  0  0  0  0
   68.2084   26.8473  186.6229 H   0  0  0  0  0  0  0  0  0  0  0  0
   66.6417   24.9820  186.2150 H   0  0  0  0  0  0  0  0  0  0  0  0
   66.5383   23.0988  187.7823 H   0  0  0  0  0  0  0  0  0  0  0  0
   68.5200   19.1542  193.1505 H   0  0  0  0  0  0  0  0  0  0  0  0
   66.7935   18.0570  191.8372 H   0  0  0  0  0  0  0  0  0  0  0  0
   66.5336   17.7623  193.5455 H   0  0  0  0  0  0  0  0  0  0  0  0
   65.5085   18.9029  192.6921 H   0  0  0  0  0  0  0  0  0  0  0  0
   69.8114   20.8662  192.1920 H   0  0  0  0  0  0  0  0  0  0  0  0
   65.5439   20.9133  191.6593 H   0  0  0  0  0  0  0  0  0  0  0  0
   65.7725   22.6456  189.9698 H   0  0  0  0  0  0  0  0  0  0  0  0
   69.6031   24.9369  190.1750 H   0  0  0  0  0  0  0  0  0  0  0  0
   69.7197   26.7967  188.5782 H   0  0  0  0  0  0  0  0  0  0  0  0
  1  8  2  0
  1 12  1  0
  1 18  1  0
  2  3  2  0
  2 15  1  0
  2 19  1  0
  3  4  1  0
  3 20  1  0
  4 13  2  0
  4 21  1  0
  5  6  1  0
  5  7  1  0
  5  9  1  0
  5 22  1  1
  6 16  1  0
  6 17  2  0
  7 23  1  0
  7 24  1  0
  7 25  1  0
  8  9  1  0
  8 26  1  0
  9 10  2  0
 10 11  1  0
 10 27  1  0
 11 12  2  0
 11 28  1  0
 12 13  1  0
 13 14  1  0
 14 15  2  0
 14 29  1  0
 15 30  1  0
M  CHG  1  16  -1
M  END
$$$$
