2BRB_ligand
     RDKit          3D

 25 28  0  0  1  0  0  0  0  0999 V2000
   14.2610    0.1294    9.4867 C   0  0  0  0  0  0  0  0  0  0  0  0
   18.2572   -1.7180    9.3682 C   0  0  0  0  0  0  0  0  0  0  0  0
   19.6892   -1.9091    8.9392 C   0  0  0  0  0  0  0  0  0  0  0  0
   20.4054   -3.0714    9.2526 C   0  0  0  0  0  0  0  0  0  0  0  0
   21.7283   -3.2243    8.8463 C   0  0  0  0  0  0  0  0  0  0  0  0
   22.3465   -2.2168    8.1128 C   0  0  0  0  0  0  0  0  0  0  0  0
   21.6455   -1.0665    7.7667 C   0  0  0  0  0  0  0  0  0  0  0  0
   20.3214   -0.9214    8.1704 C   0  0  0  0  0  0  0  0  0  0  0  0
   16.8311   -4.9042   10.3649 C   0  0  0  0  0  0  0  0  0  0  0  0
   17.0251   -6.1415   10.9680 C   0  0  0  0  0  0  0  0  0  0  0  0
   17.9423   -6.2592   12.0083 C   0  0  0  0  0  0  0  0  0  0  0  0
   18.6563   -5.1478   12.4519 C   0  0  0  0  0  0  0  0  0  0  0  0
   15.5157    0.3794    9.0306 N   0  0  0  0  0  0  0  0  0  0  0  0
   16.3717   -0.6006    9.3204 C   0  0  0  0  0  0  0  0  0  0  0  0
   17.6698   -0.5617    8.9240 O   0  0  0  0  0  0  0  0  0  0  0  0
   16.0859   -1.7796   10.0369 C   0  0  0  0  0  0  0  0  0  0  0  0
   14.3458   -3.0394   11.2204 N   0  0  0  0  0  0  0  0  0  0  0  0
   14.7463   -1.9210   10.4679 C   0  0  0  0  0  0  0  0  0  0  0  0
   13.8277   -0.9629   10.1599 N   0  0  0  0  0  0  0  0  0  0  0  0
   18.4507   -3.9060   11.8559 C   0  0  0  0  0  0  0  0  0  0  0  0
   17.3363   -2.4880   10.1092 C   0  0  0  0  0  0  0  0  0  0  0  0
   17.5488   -3.7894   10.7959 C   0  0  0  0  0  0  0  0  0  0  0  0
   12.5448   -2.6210   12.9549 C   0  0  0  0  0  0  0  0  0  0  0  0
   12.9545   -3.2681   11.6208 C   0  0  0  0  0  0  0  0  0  0  0  0
   12.5523   -1.2132   12.8791 O   0  0  0  0  0  0  0  0  0  0  0  0
  1 13  2  0
  1 19  1  0
  2  3  1  0
  2 15  1  0
  2 21  2  0
  3  4  2  0
  3  8  1  0
  4  5  1  0
  5  6  2  0
  6  7  1  0
  7  8  2  0
  9 10  2  0
  9 22  1  0
 10 11  1  0
 11 12  2  0
 12 20  1  0
 13 14  1  0
 14 15  1  0
 14 16  2  0
 16 18  1  0
 16 21  1  0
 17 18  1  0
 17 24  1  0
 18 19  2  0
 20 22  2  0
 21 22  1  0
 23 24  1  0
 23 25  1  0
M  END
$$$$
