7FB7 - prepared_ligand2
     RDKit          3D

 20 20  0  0  1  0  0  0  0  0999 V2000
   50.1802   25.5923   45.7072 C   0  0  0  0  0  0  0  0  0  0  0  0
   51.0600   24.4921   46.2788 C   0  0  0  0  0  0  0  0  0  0  0  0
   52.2910   24.8277   46.8603 C   0  0  0  0  0  0  0  0  0  0  0  0
   53.1088   23.8261   47.3880 C   0  0  0  0  0  0  0  0  0  0  0  0
   51.5312   22.1721   46.7563 C   0  0  0  0  0  0  0  0  0  0  0  0
   50.6749   23.1386   46.2312 C   0  0  0  0  0  0  0  0  0  0  0  0
   54.4416   24.1028   48.0546 C   0  0  0  0  0  0  0  0  0  0  0  0
   52.6971   22.5496   47.3069 N   0  0  0  0  0  0  0  0  0  0  0  0
   49.4644   22.7205   45.6784 N   0  0  0  0  0  0  0  0  0  0  0  0
   49.9062   25.3601   44.6779 H   0  0  0  0  0  0  0  0  0  0  0  0
   49.2601   25.6774   46.2830 H   0  0  0  0  0  0  0  0  0  0  0  0
   50.6816   26.5601   45.7010 H   0  0  0  0  0  0  0  0  0  0  0  0
   52.6167   25.8538   46.8886 H   0  0  0  0  0  0  0  0  0  0  0  0
   51.3286   21.1130   46.7719 H   0  0  0  0  0  0  0  0  0  0  0  0
   55.2202   23.4708   47.6278 H   0  0  0  0  0  0  0  0  0  0  0  0
   54.7466   25.1409   47.9212 H   0  0  0  0  0  0  0  0  0  0  0  0
   54.3845   23.8988   49.1244 H   0  0  0  0  0  0  0  0  0  0  0  0
   53.3041   21.8271   47.6802 H   0  0  0  0  0  0  0  0  0  0  0  0
   49.2075   21.7444   45.7351 H   0  0  0  0  0  0  0  0  0  0  0  0
   48.8525   23.3895   45.2273 H   0  0  0  0  0  0  0  0  0  0  0  0
  1  2  1  0
  1 10  1  0
  1 11  1  0
  1 12  1  0
  2  3  2  0
  2  6  1  0
  3  4  1  0
  3 13  1  0
  4  7  1  0
  4  8  2  0
  5  6  2  0
  5  8  1  0
  5 14  1  0
  6  9  1  0
  7 15  1  0
  7 16  1  0
  7 17  1  0
  8 18  1  0
  9 19  1  0
  9 20  1  0
M  CHG  1   8   1
M  END
$$$$
