4J3L_ligand
     RDKit          3D

 26 28  0  0  1  0  0  0  0  0999 V2000
    2.5731  -10.0157   -1.8062 C   0  0  0  0  0  0  0  0  0  0  0  0
    2.4468  -11.4827   -3.8334 C   0  0  0  0  0  0  0  0  0  0  0  0
    2.5214  -11.4962   -5.3428 C   0  0  0  0  0  0  0  0  0  0  0  0
    3.3370  -10.5772   -7.4350 C   0  0  0  0  0  0  0  0  0  0  0  0
    4.5035  -11.8951   -9.9785 C   0  0  0  0  0  0  0  0  0  0  0  0
    3.9075  -12.0763  -12.3099 C   0  0  0  0  0  0  0  0  0  0  0  0
    5.6609  -12.3516  -14.2140 C   0  0  0  0  0  0  0  0  0  0  0  0
    2.1832  -11.8207  -10.6022 C   0  0  0  0  0  0  0  0  0  0  0  0
    6.1795  -10.3538   -0.9238 C   0  0  0  0  0  0  0  0  0  0  0  0
    4.9032  -10.6362   -1.4798 O   0  0  0  0  0  0  0  0  0  0  0  0
    3.9502   -9.6034   -1.2576 C   0  0  0  0  0  0  0  0  0  0  0  0
    2.5907  -10.2792   -3.2453 N   0  0  0  0  0  0  0  0  0  0  0  0
    2.2431  -12.5240   -3.2029 O   0  0  0  0  0  0  0  0  0  0  0  0
    3.1964  -10.4935   -6.0530 C   0  0  0  0  0  0  0  0  0  0  0  0
    2.8206  -11.6590   -8.1555 C   0  0  0  0  0  0  0  0  0  0  0  0
    3.1601  -11.7901   -9.6008 C   0  0  0  0  0  0  0  0  0  0  0  0
    4.8819  -12.0306  -11.3123 C   0  0  0  0  0  0  0  0  0  0  0  0
    4.2112  -12.2503  -13.7589 C   0  0  0  0  0  0  0  0  0  0  0  0
    3.1826  -12.3055  -14.6383 C   0  0  0  0  0  0  0  0  0  0  0  0
    1.7813  -12.2613  -14.2582 C   0  0  0  0  0  0  0  0  0  0  0  0
    0.8566  -12.4597  -15.0343 O   0  0  0  0  0  0  0  0  0  0  0  0
    1.5738  -12.0343  -12.9416 N   0  0  0  0  0  0  0  0  0  0  0  0
    2.5541  -11.9607  -11.9432 C   0  0  0  0  0  0  0  0  0  0  0  0
    2.0787  -12.6261   -7.4548 C   0  0  0  0  0  0  0  0  0  0  0  0
    1.3763  -13.9856   -8.2506 Cl  0  0  0  0  0  0  0  0  0  0  0  0
    1.9386  -12.5438   -6.0678 C   0  0  0  0  0  0  0  0  0  0  0  0
  1 11  1  0
  1 12  1  0
  2  3  1  0
  2 12  1  0
  2 13  2  0
  3 14  2  0
  3 26  1  0
  4 14  1  0
  4 15  2  0
  5 16  2  0
  5 17  1  0
  6 17  2  0
  6 18  1  0
  6 23  1  0
  7 18  1  0
  8 16  1  0
  8 23  2  0
  9 10  1  0
 10 11  1  0
 15 16  1  0
 15 24  1  0
 18 19  2  0
 19 20  1  0
 20 21  2  0
 20 22  1  0
 22 23  1  0
 24 25  1  0
 24 26  2  0
M  END
$$$$
