7PRM - prepared_ligand
     RDKit          3D

 57 61  0  0  1  0  0  0  0  0999 V2000
  128.1771   21.6623   -5.9107 C   0  0  0  0  0  0  0  0  0  0  0  0
  126.8289   21.7242   -6.2685 C   0  0  0  0  0  0  0  0  0  0  0  0
  125.8843   20.9651   -5.5723 C   0  0  0  0  0  0  0  0  0  0  0  0
  124.5246   20.9871   -5.9583 N   0  0  0  0  0  0  0  0  0  0  0  0
  123.4915   21.0985   -5.0839 C   0  0  0  0  0  0  0  0  0  0  0  0
  123.5372   21.1797   -3.8563 O   0  0  0  0  0  0  0  0  0  0  0  0
  122.2007   21.0768   -5.8910 C   0  0  0  0  0  0  0  0  0  0  0  0
  122.5712   20.6625   -7.2986 C   0  0  1  0  0  0  0  0  0  0  0  0
  121.6800   21.2143   -8.4374 N   0  0  0  0  0  0  0  0  0  0  0  0
  122.0790   20.6202   -9.8045 C   0  0  0  0  0  0  0  0  0  0  0  0
  121.1481   21.0672  -10.9674 C   0  0  0  0  0  0  0  0  0  0  0  0
  119.7098   21.0353  -10.5836 N   0  0  0  0  0  0  0  0  0  0  0  0
  118.6614   20.6050  -11.3570 C   0  0  0  0  0  0  0  0  0  0  0  0
  117.5001   20.6173  -10.9405 O   0  0  0  0  0  0  0  0  0  0  0  0
  118.8473   20.1133  -12.7104 C   0  0  0  0  0  0  0  0  0  0  0  0
  120.0093   20.2651  -13.4005 O   0  0  0  0  0  0  0  0  0  0  0  0
  119.8403   19.6929  -14.6187 C   0  0  0  0  0  0  0  0  0  0  0  0
  118.5526   19.2161  -14.7509 C   0  0  0  0  0  0  0  0  0  0  0  0
  117.9131   19.5104  -13.5512 C   0  0  0  0  0  0  0  0  0  0  0  0
  119.3817   21.6021   -9.2574 C   0  0  0  0  0  0  0  0  0  0  0  0
  120.2026   20.8685   -8.1963 C   0  0  0  0  0  0  0  0  0  0  0  0
  124.0677   20.9422   -7.3525 C   0  0  0  0  0  0  0  0  0  0  0  0
  126.3116   20.1532   -4.5147 C   0  0  0  0  0  0  0  0  0  0  0  0
  127.6554   20.0680   -4.1868 C   0  0  0  0  0  0  0  0  0  0  0  0
  128.6115   20.8219   -4.8737 C   0  0  0  0  0  0  0  0  0  0  0  0
  130.0557   20.7093   -4.5007 C   0  0  0  0  0  0  0  0  0  0  0  0
  130.4323   20.4527   -3.1736 C   0  0  0  0  0  0  0  0  0  0  0  0
  131.7704   20.3125   -2.8190 C   0  0  0  0  0  0  0  0  0  0  0  0
  132.7536   20.4366   -3.7933 C   0  0  0  0  0  0  0  0  0  0  0  0
  132.4037   20.7023   -5.1139 C   0  0  0  0  0  0  0  0  0  0  0  0
  131.0634   20.8353   -5.4660 C   0  0  0  0  0  0  0  0  0  0  0  0
  134.0547   20.3014   -3.4530 F   0  0  0  0  0  0  0  0  0  0  0  0
  128.8853   22.2658   -6.4584 H   0  0  0  0  0  0  0  0  0  0  0  0
  126.5252   22.3655   -7.0825 H   0  0  0  0  0  0  0  0  0  0  0  0
  121.7540   22.0719   -5.8664 H   0  0  0  0  0  0  0  0  0  0  0  0
  121.4884   20.3817   -5.4472 H   0  0  0  0  0  0  0  0  0  0  0  0
  122.4073   19.5861   -7.3729 H   0  0  0  0  0  0  0  0  0  0  0  0
  121.7597   22.2251   -8.4691 H   0  0  0  0  0  0  0  0  0  0  0  0
  122.1112   19.5346   -9.7095 H   0  0  0  0  0  0  0  0  0  0  0  0
  123.0932   20.9777   -9.9762 H   0  0  0  0  0  0  0  0  0  0  0  0
  121.3769   20.3276  -11.7273 H   0  0  0  0  0  0  0  0  0  0  0  0
  121.4460   22.0579  -11.3085 H   0  0  0  0  0  0  0  0  0  0  0  0
  120.6929   19.7043  -15.2763 H   0  0  0  0  0  0  0  0  0  0  0  0
  118.1247   18.7259  -15.6125 H   0  0  0  0  0  0  0  0  0  0  0  0
  116.8839   19.2946  -13.3114 H   0  0  0  0  0  0  0  0  0  0  0  0
  118.3294   21.5274   -8.9891 H   0  0  0  0  0  0  0  0  0  0  0  0
  119.6203   22.6633   -9.2436 H   0  0  0  0  0  0  0  0  0  0  0  0
  119.9457   21.2160   -7.1994 H   0  0  0  0  0  0  0  0  0  0  0  0
  120.0851   19.7845   -8.2380 H   0  0  0  0  0  0  0  0  0  0  0  0
  124.5823   20.1777   -7.9320 H   0  0  0  0  0  0  0  0  0  0  0  0
  124.2646   21.8916   -7.8500 H   0  0  0  0  0  0  0  0  0  0  0  0
  125.6200   19.5600   -3.9438 H   0  0  0  0  0  0  0  0  0  0  0  0
  127.9433   19.3949   -3.3932 H   0  0  0  0  0  0  0  0  0  0  0  0
  129.6866   20.3621   -2.4004 H   0  0  0  0  0  0  0  0  0  0  0  0
  132.0436   20.1135   -1.7928 H   0  0  0  0  0  0  0  0  0  0  0  0
  133.1700   20.8051   -5.8661 H   0  0  0  0  0  0  0  0  0  0  0  0
  130.8169   21.0251   -6.4998 H   0  0  0  0  0  0  0  0  0  0  0  0
  1  2  2  0
  1 25  1  0
  1 33  1  0
  2  3  1  0
  2 34  1  0
  3  4  1  0
  3 23  2  0
  4  5  1  0
  4 22  1  0
  5  6  2  0
  5  7  1  0
  7  8  1  0
  7 35  1  0
  7 36  1  0
  8  9  1  0
  8 22  1  0
  8 37  1  1
  9 10  1  0
  9 21  1  0
  9 38  1  0
 10 11  1  0
 10 39  1  0
 10 40  1  0
 11 12  1  0
 11 41  1  0
 11 42  1  0
 12 13  1  0
 12 20  1  0
 13 14  2  0
 13 15  1  0
 15 16  1  0
 15 19  2  0
 16 17  1  0
 17 18  2  0
 17 43  1  0
 18 19  1  0
 18 44  1  0
 19 45  1  0
 20 21  1  0
 20 46  1  0
 20 47  1  0
 21 48  1  0
 21 49  1  0
 22 50  1  0
 22 51  1  0
 23 24  1  0
 23 52  1  0
 24 25  2  0
 24 53  1  0
 25 26  1  0
 26 27  2  0
 26 31  1  0
 27 28  1  0
 27 54  1  0
 28 29  2  0
 28 55  1  0
 29 30  1  0
 29 32  1  0
 30 31  2  0
 30 56  1  0
 31 57  1  0
M  CHG  1   9   1
M  END
$$$$
