8BPL - prepared_ligand1
     RDKit          3D

 10  9  0  0  1  0  0  0  0  0999 V2000
  -31.8358   29.6367   12.8571 N   0  0  0  0  0  0  0  0  0  0  0  0
  -31.0093   30.2977   13.7247 C   0  0  0  0  0  0  0  0  0  0  0  0
  -30.0196   29.8074   14.2551 O   0  0  0  0  0  0  0  0  0  0  0  0
  -31.4614   31.5266   13.9383 O   0  0  0  0  0  0  0  0  0  0  0  0
  -30.7183   32.6707   15.0399 P   0  0  0  0  0  0  0  0  0  0  0  0
  -29.4004   33.1129   14.3830 O   0  0  0  0  0  0  0  0  0  0  0  0
  -30.5098   31.9202   16.3703 O   0  0  0  0  0  0  0  0  0  0  0  0
  -31.7277   33.8237   15.1771 O   0  0  0  0  0  0  0  0  0  0  0  0
  -32.5375   30.1597   12.3520 H   0  0  0  0  0  0  0  0  0  0  0  0
  -31.6234   28.6815   12.6109 H   0  0  0  0  0  0  0  0  0  0  0  0
  1  2  1  0
  1  9  1  0
  1 10  1  0
  2  3  2  0
  2  4  1  0
  4  5  1  0
  5  6  2  0
  5  7  1  0
  5  8  1  0
M  CHG  2   7  -1   8  -1
M  END
$$$$
