2WBG_ligand
     RDKit          3D

 22 23  0  0  1  0  0  0  0  0999 V2000
   45.1852   21.3867  -58.6461 O   0  0  0  0  0  0  0  0  0  0  0  0
   44.5463   21.8130  -57.4637 C   0  0  2  0  0  0  0  0  0  0  0  0
   44.5728   23.3563  -57.3352 C   0  0  1  0  0  0  0  0  0  0  0  0
   43.9442   24.2051  -58.4382 C   0  0  0  0  0  0  0  0  0  0  0  0
   43.4276   25.3018  -57.7024 O   0  0  0  0  0  0  0  0  0  0  0  0
   45.2130   21.2270  -56.2009 C   0  0  2  0  0  0  0  0  0  0  0  0
   45.3602   19.8226  -56.2340 O   0  0  0  0  0  0  0  0  0  0  0  0
   44.3830   21.6335  -54.9646 C   0  0  1  0  0  0  0  0  0  0  0  0
   45.0899   21.3633  -53.7683 O   0  0  0  0  0  0  0  0  0  0  0  0
   43.8635   23.1042  -54.9229 C   0  0  2  0  0  0  0  0  0  0  0  0
   42.6153   23.1274  -54.2738 O   0  0  0  0  0  0  0  0  0  0  0  0
   43.7138   23.7741  -56.2309 N   0  0  0  0  0  0  0  0  0  0  0  0
   43.1203   24.9325  -56.5122 C   0  0  0  0  0  0  0  0  0  0  0  0
   42.3649   25.7108  -55.7356 N   0  0  0  0  0  0  0  0  0  0  0  0
   41.7533   27.0033  -56.0126 C   0  0  0  0  0  0  0  0  0  0  0  0
   40.2237   26.9410  -55.8901 C   0  0  0  0  0  0  0  0  0  0  0  0
   39.5569   28.3154  -56.0237 C   0  0  0  0  0  0  0  0  0  0  0  0
   38.0236   28.2077  -56.0631 C   0  0  0  0  0  0  0  0  0  0  0  0
   37.3396   29.5692  -56.2574 C   0  0  0  0  0  0  0  0  0  0  0  0
   35.8194   29.4800  -56.4934 C   0  0  0  0  0  0  0  0  0  0  0  0
   35.0173   29.0722  -55.2443 C   0  0  0  0  0  0  0  0  0  0  0  0
   33.5020   29.0570  -55.4862 C   0  0  0  0  0  0  0  0  0  0  0  0
  2  1  1  6
  2  3  1  0
  2  6  1  0
  3  4  1  6
  3 12  1  0
  4  5  1  0
  5 13  1  0
  6  7  1  6
  6  8  1  0
  8  9  1  1
  8 10  1  0
 10 11  1  6
 10 12  1  0
 12 13  1  0
 13 14  2  0
 14 15  1  0
 15 16  1  0
 16 17  1  0
 17 18  1  0
 18 19  1  0
 19 20  1  0
 20 21  1  0
 21 22  1  0
M  CHG  1  14   1
M  END
$$$$
