3COY_ligand
     RDKit          3D

 31 33  0  0  1  0  0  0  0  0999 V2000
    2.7146  -11.0272   32.2462 C   0  0  0  0  0  0  0  0  0  0  0  0
   -1.5308   -7.4567   40.9882 C   0  0  0  0  0  0  0  0  0  0  0  0
    3.4621  -10.9101   30.8727 C   0  0  1  0  0  0  0  0  0  0  0  0
   -0.8159   -8.8799   39.4283 C   0  0  0  0  0  0  0  0  0  0  0  0
   -0.6891   -9.9007   40.3533 C   0  0  0  0  0  0  0  0  0  0  0  0
   -1.0005   -9.5933   41.6982 C   0  0  0  0  0  0  0  0  0  0  0  0
    2.8180   -9.9413   29.8060 C   0  0  0  0  0  0  0  0  0  0  0  0
   -1.4482   -8.3446   41.9870 N   0  0  0  0  0  0  0  0  0  0  0  0
    1.7168  -11.8765   32.2802 N   0  0  0  0  0  0  0  0  0  0  0  0
    3.1522  -10.4008   33.2220 O   0  0  0  0  0  0  0  0  0  0  0  0
   -0.1053  -10.7033   38.5104 C   0  0  0  0  0  0  0  0  0  0  0  0
    1.9918   -7.7311   37.1764 O   0  0  0  0  0  0  0  0  0  0  0  0
   -1.2224   -7.6146   39.6944 N   0  0  0  0  0  0  0  0  0  0  0  0
    2.6804   -8.4992   30.3530 C   0  0  0  0  0  0  0  0  0  0  0  0
    3.6616   -9.8668   28.5049 C   0  0  0  0  0  0  0  0  0  0  0  0
    1.4075  -10.4369   29.4003 C   0  0  0  0  0  0  0  0  0  0  0  0
    4.9226  -10.6749   31.1710 N   0  0  0  0  0  0  0  0  0  0  0  0
    1.1622  -12.4553   33.6337 S   0  0  0  0  0  0  0  0  0  0  0  0
    2.2070  -13.0401   34.4819 O   0  0  0  0  0  0  0  0  0  0  0  0
   -0.0505  -13.2595   33.4435 O   0  0  0  0  0  0  0  0  0  0  0  0
    0.6568  -11.0754   34.4414 O   0  0  0  0  0  0  0  0  0  0  0  0
   -0.2700  -10.2000   33.8159 C   0  0  0  0  0  0  0  0  0  0  0  0
   -0.4321   -8.9196   34.6496 C   0  0  2  0  0  0  0  0  0  0  0  0
    0.8905   -8.2027   34.9692 C   0  0  1  0  0  0  0  0  0  0  0  0
    0.7901   -6.8036   34.7816 O   0  0  0  0  0  0  0  0  0  0  0  0
    1.1863   -8.6109   36.4104 C   0  0  2  0  0  0  0  0  0  0  0  0
   -0.2380   -8.6685   36.9429 C   0  0  1  0  0  0  0  0  0  0  0  0
   -1.0034   -9.2230   35.9192 O   0  0  0  0  0  0  0  0  0  0  0  0
   -0.4266   -9.4240   38.2387 N   0  0  0  0  0  0  0  0  0  0  0  0
   -0.2634  -11.0307   39.7703 N   0  0  0  0  0  0  0  0  0  0  0  0
   -0.8671  -10.4990   42.7428 N   0  0  0  0  0  0  0  0  0  0  0  0
  1  3  1  0
  1  9  1  0
  1 10  2  0
  2  8  2  0
  2 13  1  0
  3  7  1  0
  3 17  1  1
  4  5  1  0
  4 13  2  0
  4 29  1  0
  5  6  2  0
  5 30  1  0
  6  8  1  0
  6 31  1  0
  7 14  1  0
  7 15  1  0
  7 16  1  0
  9 18  1  0
 11 29  1  0
 11 30  2  0
 26 12  1  1
 18 19  2  0
 18 20  2  0
 18 21  1  0
 21 22  1  0
 23 22  1  1
 23 24  1  0
 23 28  1  0
 24 25  1  1
 24 26  1  0
 26 27  1  0
 27 28  1  0
 27 29  1  1
M  CHG  2   9  -1  17   1
M  END
$$$$
