8BOM - prepared_ligand
     RDKit          3D

 58 62  0  0  1  0  0  0  0  0999 V2000
  -82.7161  -20.2141   84.8909 N   0  0  0  0  0  0  0  0  0  0  0  0
  -78.3800  -20.7920   89.5190 N   0  0  0  0  0  0  0  0  0  0  0  0
  -84.9486  -19.7057   87.7798 C   0  0  0  0  0  0  0  0  0  0  0  0
  -85.5608  -18.5115   88.4736 C   0  0  0  0  0  0  0  0  0  0  0  0
  -87.3439  -17.7671   89.9993 C   0  0  0  0  0  0  0  0  0  0  0  0
  -87.6412  -16.5225   89.4216 C   0  0  0  0  0  0  0  0  0  0  0  0
  -88.3736  -15.5605   90.1131 C   0  0  0  0  0  0  0  0  0  0  0  0
  -88.8675  -15.8771   91.3880 C   0  0  0  0  0  0  0  0  0  0  0  0
  -84.0771  -19.4843   86.7078 C   0  0  0  0  0  0  0  0  0  0  0  0
  -81.3514  -19.9054   84.8828 C   0  0  0  0  0  0  0  0  0  0  0  0
  -78.4587  -20.1334   87.1688 C   0  0  0  0  0  0  0  0  0  0  0  0
  -77.0342  -20.6550   89.4966 C   0  0  0  0  0  0  0  0  0  0  0  0
  -79.0623  -20.5300   88.3762 C   0  0  0  0  0  0  0  0  0  0  0  0
  -79.3868  -19.0732   83.8065 C   0  0  0  0  0  0  0  0  0  0  0  0
  -81.1552  -18.8904   82.4427 C   0  0  0  0  0  0  0  0  0  0  0  0
  -86.5571  -18.7414   89.3589 N   0  0  0  0  0  0  0  0  0  0  0  0
  -83.3123  -23.0355   85.5373 C   0  0  0  0  0  0  0  0  0  0  0  0
  -88.5535  -14.3509   89.4732 O   0  0  0  0  0  0  0  0  0  0  0  0
  -83.8306  -21.8591   86.3456 C   0  0  0  0  0  0  0  0  0  0  0  0
  -88.6248  -17.1311   91.9488 C   0  0  0  0  0  0  0  0  0  0  0  0
  -87.8624  -18.0712   91.2585 C   0  0  0  0  0  0  0  0  0  0  0  0
  -83.5190  -20.5382   85.9913 C   0  0  0  0  0  0  0  0  0  0  0  0
  -79.2646  -19.8566   85.9324 C   0  0  0  0  0  0  0  0  0  0  0  0
  -77.0566  -20.0131   87.1890 C   0  0  0  0  0  0  0  0  0  0  0  0
  -76.3351  -20.2701   88.3546 C   0  0  0  0  0  0  0  0  0  0  0  0
  -84.6736  -22.0952   87.4360 C   0  0  0  0  0  0  0  0  0  0  0  0
  -80.7697  -19.3307   83.7425 C   0  0  0  0  0  0  0  0  0  0  0  0
  -77.7464  -18.1043   82.0943 C   0  0  0  0  0  0  0  0  0  0  0  0
  -85.2305  -21.0307   88.1454 C   0  0  0  0  0  0  0  0  0  0  0  0
  -89.1436  -13.2757   90.1898 C   0  0  0  0  0  0  0  0  0  0  0  0
  -80.5924  -20.1683   85.9785 N   0  0  0  0  0  0  0  0  0  0  0  0
  -78.6054  -19.3108   84.8657 N   0  0  0  0  0  0  0  0  0  0  0  0
  -80.1265  -18.4372   81.7685 N   0  0  0  0  0  0  0  0  0  0  0  0
  -79.0452  -18.5537   82.5691 N   0  0  0  0  0  0  0  0  0  0  0  0
  -85.1436  -17.3833   88.2044 O   0  0  0  0  0  0  0  0  0  0  0  0
  -83.2249  -19.9473   84.0592 H   0  0  0  0  0  0  0  0  0  0  0  0
  -87.2942  -16.2733   88.4312 H   0  0  0  0  0  0  0  0  0  0  0  0
  -89.4460  -15.1632   91.9521 H   0  0  0  0  0  0  0  0  0  0  0  0
  -83.8429  -18.4748   86.4000 H   0  0  0  0  0  0  0  0  0  0  0  0
  -76.5141  -20.8680   90.4189 H   0  0  0  0  0  0  0  0  0  0  0  0
  -80.1336  -20.6482   88.4550 H   0  0  0  0  0  0  0  0  0  0  0  0
  -82.1432  -18.9034   82.0143 H   0  0  0  0  0  0  0  0  0  0  0  0
  -86.7411  -19.6982   89.6263 H   0  0  0  0  0  0  0  0  0  0  0  0
  -83.7817  -23.9720   85.8331 H   0  0  0  0  0  0  0  0  0  0  0  0
  -83.5385  -22.8770   84.4839 H   0  0  0  0  0  0  0  0  0  0  0  0
  -82.2311  -23.1236   85.6355 H   0  0  0  0  0  0  0  0  0  0  0  0
  -89.0116  -17.3724   92.9273 H   0  0  0  0  0  0  0  0  0  0  0  0
  -87.6590  -19.0243   91.7216 H   0  0  0  0  0  0  0  0  0  0  0  0
  -76.5129  -19.7213   86.3024 H   0  0  0  0  0  0  0  0  0  0  0  0
  -75.2591  -20.1784   88.3692 H   0  0  0  0  0  0  0  0  0  0  0  0
  -84.9222  -23.1062   87.7240 H   0  0  0  0  0  0  0  0  0  0  0  0
  -77.7624  -17.9504   81.0142 H   0  0  0  0  0  0  0  0  0  0  0  0
  -77.4856  -17.1680   82.5869 H   0  0  0  0  0  0  0  0  0  0  0  0
  -76.9956  -18.8581   82.3315 H   0  0  0  0  0  0  0  0  0  0  0  0
  -85.8985  -21.2563   88.9611 H   0  0  0  0  0  0  0  0  0  0  0  0
  -89.1932  -12.4007   89.5417 H   0  0  0  0  0  0  0  0  0  0  0  0
  -90.1596  -13.5108   90.5067 H   0  0  0  0  0  0  0  0  0  0  0  0
  -88.5509  -13.0097   91.0664 H   0  0  0  0  0  0  0  0  0  0  0  0
  1 10  1  0
  1 22  1  0
  1 36  1  0
  2 12  2  0
  2 13  1  0
  3  4  1  0
  3  9  2  0
  3 29  1  0
  4 16  1  0
  4 35  2  0
  5  6  2  0
  5 16  1  0
  5 21  1  0
  6  7  1  0
  6 37  1  0
  7  8  2  0
  7 18  1  0
  8 20  1  0
  8 38  1  0
  9 22  1  0
  9 39  1  0
 10 27  2  0
 10 31  1  0
 11 13  2  0
 11 23  1  0
 11 24  1  0
 12 25  1  0
 12 40  1  0
 13 41  1  0
 14 27  1  0
 14 32  2  0
 14 34  1  0
 15 27  1  0
 15 33  2  0
 15 42  1  0
 16 43  1  0
 17 19  1  0
 17 44  1  0
 17 45  1  0
 17 46  1  0
 18 30  1  0
 19 22  2  0
 19 26  1  0
 20 21  2  0
 20 47  1  0
 21 48  1  0
 23 31  2  0
 23 32  1  0
 24 25  2  0
 24 49  1  0
 25 50  1  0
 26 29  2  0
 26 51  1  0
 28 34  1  0
 28 52  1  0
 28 53  1  0
 28 54  1  0
 29 55  1  0
 30 56  1  0
 30 57  1  0
 30 58  1  0
 33 34  1  0
M  END
$$$$
