3ARU_ligand
     RDKit          3D

 20 21  0  0  1  0  0  0  0  0999 V2000
   -0.3414   11.2665   12.5057 C   0  0  0  0  0  0  0  0  0  0  0  0
   -0.5102   11.6868   13.9580 C   0  0  0  0  0  0  0  0  0  0  0  0
   -0.6339   12.8747   14.2581 O   0  0  0  0  0  0  0  0  0  0  0  0
   -0.5340   10.5621   15.0028 C   0  0  0  0  0  0  0  0  0  0  0  0
   -1.0959   10.9946   16.3719 C   0  0  0  0  0  0  0  0  0  0  0  0
   -0.9441    9.9585   17.4956 C   0  0  0  0  0  0  0  0  0  0  0  0
   -1.6195    8.5969   17.2344 C   0  0  0  0  0  0  0  0  0  0  0  0
   -1.7789    7.7624   18.4573 N   0  0  0  0  0  0  0  0  0  0  0  0
   -2.9503    7.9842   19.1678 C   0  0  0  0  0  0  0  0  0  0  0  0
   -3.8035    8.8221   18.8647 O   0  0  0  0  0  0  0  0  0  0  0  0
   -3.0225    7.0737   20.2878 C   0  0  0  0  0  0  0  0  0  0  0  0
   -4.0007    6.8981   21.2382 N   0  0  0  0  0  0  0  0  0  0  0  0
   -5.2692    7.5967   21.3650 C   0  0  0  0  0  0  0  0  0  0  0  0
   -3.5203    5.8924   22.0443 C   0  0  0  0  0  0  0  0  0  0  0  0
   -2.3434    5.4407   21.6810 N   0  0  0  0  0  0  0  0  0  0  0  0
   -2.0321    6.1657   20.6183 C   0  0  0  0  0  0  0  0  0  0  0  0
   -0.8794    6.1141   19.8469 N   0  0  0  0  0  0  0  0  0  0  0  0
    0.1973    5.1857   20.2269 C   0  0  0  0  0  0  0  0  0  0  0  0
   -0.6934    6.9508   18.7708 C   0  0  0  0  0  0  0  0  0  0  0  0
    0.3809    6.9968   18.1649 O   0  0  0  0  0  0  0  0  0  0  0  0
  1  2  1  0
  2  3  2  0
  2  4  1  0
  4  5  1  0
  5  6  1  0
  6  7  1  0
  7  8  1  0
  8  9  1  0
  8 19  1  0
  9 10  2  0
  9 11  1  0
 11 12  1  0
 11 16  2  0
 12 13  1  0
 12 14  1  0
 14 15  2  0
 15 16  1  0
 16 17  1  0
 17 18  1  0
 17 19  1  0
 19 20  2  0
M  END
$$$$
