1V4S - prepared_ligand2
     RDKit          3D

 36 38  0  0  1  0  0  0  0  0999 V2000
   36.1874   19.0281   60.8701 S   0  0  0  0  0  0  0  0  0  0  0  0
   35.6904   19.4213   59.2535 C   0  0  0  0  0  0  0  0  0  0  0  0
   36.5357   18.7802   58.3550 C   0  0  0  0  0  0  0  0  0  0  0  0
   37.4934   18.0401   58.8781 N   0  0  0  0  0  0  0  0  0  0  0  0
   37.4662   18.0484   60.1859 C   0  0  0  0  0  0  0  0  0  0  0  0
   38.3748   17.2788   60.9040 N   0  0  0  0  0  0  0  0  0  0  0  0
   38.5663   17.2243   62.2433 C   0  0  0  0  0  0  0  0  0  0  0  0
   37.9798   17.9375   63.0549 O   0  0  0  0  0  0  0  0  0  0  0  0
   40.3373   16.3675   63.9133 C   0  0  0  0  0  0  0  0  0  0  0  0
   39.6100   16.2213   62.7113 C   0  0  0  0  0  0  0  0  0  0  0  0
   39.8436   15.0701   61.9485 C   0  0  0  0  0  0  0  0  0  0  0  0
   40.7872   14.1129   62.3070 C   0  0  0  0  0  0  0  0  0  0  0  0
   41.5158   14.2856   63.4892 C   0  0  0  0  0  0  0  0  0  0  0  0
   42.4079   13.3692   63.9145 F   0  0  0  0  0  0  0  0  0  0  0  0
   41.2879   15.4104   64.2805 C   0  0  0  0  0  0  0  0  0  0  0  0
   40.8695   12.6796   61.2595 S   0  0  0  0  0  0  0  0  0  0  0  0
   42.7344   10.8752   62.3687 N   0  0  0  0  0  0  0  0  0  0  0  0
   42.4475   11.9447   61.5331 C   0  0  0  0  0  0  0  0  0  0  0  0
   43.6200   12.2543   60.8756 N   0  0  0  0  0  0  0  0  0  0  0  0
   44.6338   11.4131   61.2927 C   0  0  0  0  0  0  0  0  0  0  0  0
   44.0772   10.5503   62.2254 C   0  0  0  0  0  0  0  0  0  0  0  0
   41.8090   10.2164   63.2750 C   0  0  0  0  0  0  0  0  0  0  0  0
   40.1323   17.4342   64.7878 N   0  0  0  0  0  0  0  0  0  0  0  0
   34.8473   20.0680   59.0572 H   0  0  0  0  0  0  0  0  0  0  0  0
   36.4567   18.8481   57.2799 H   0  0  0  0  0  0  0  0  0  0  0  0
   38.9917   16.7143   60.3361 H   0  0  0  0  0  0  0  0  0  0  0  0
   39.2454   14.8766   61.0728 H   0  0  0  0  0  0  0  0  0  0  0  0
   41.8431   15.5179   65.2008 H   0  0  0  0  0  0  0  0  0  0  0  0
   43.7217   12.9784   60.1786 H   0  0  0  0  0  0  0  0  0  0  0  0
   45.6356   11.5045   60.8953 H   0  0  0  0  0  0  0  0  0  0  0  0
   44.5113    9.7451   62.8031 H   0  0  0  0  0  0  0  0  0  0  0  0
   42.2507   10.1600   64.2671 H   0  0  0  0  0  0  0  0  0  0  0  0
   40.8811   10.7802   63.3487 H   0  0  0  0  0  0  0  0  0  0  0  0
   41.5825    9.2181   62.9034 H   0  0  0  0  0  0  0  0  0  0  0  0
   40.7355   17.5422   65.5958 H   0  0  0  0  0  0  0  0  0  0  0  0
   39.4194   18.1178   64.5697 H   0  0  0  0  0  0  0  0  0  0  0  0
  1  2  1  0
  1  5  1  0
  2  3  2  0
  2 24  1  0
  3  4  1  0
  3 25  1  0
  4  5  2  0
  5  6  1  0
  6  7  1  0
  6 26  1  0
  7  8  2  0
  7 10  1  0
  9 10  2  0
  9 15  1  0
  9 23  1  0
 10 11  1  0
 11 12  2  0
 11 27  1  0
 12 13  1  0
 12 16  1  0
 13 14  1  0
 13 15  2  0
 15 28  1  0
 16 18  1  0
 17 18  1  0
 17 21  1  0
 17 22  1  0
 18 19  2  0
 19 20  1  0
 19 29  1  0
 20 21  2  0
 20 30  1  0
 21 31  1  0
 22 32  1  0
 22 33  1  0
 22 34  1  0
 23 35  1  0
 23 36  1  0
M  CHG  1  19   1
M  END
$$$$
