7R6J - prepared_ligand2
     RDKit          3D

 64 67  0  0  1  0  0  0  0  0999 V2000
   -7.4402  -39.9621  -32.9411 N   0  0  2  0  0  0  0  0  0  0  0  0
   -9.7206  -34.6018  -37.4231 N   0  0  0  0  0  0  0  0  0  0  0  0
   -6.1604  -40.2131  -33.7701 C   0  0  0  0  0  0  0  0  0  0  0  0
   -8.2176  -41.2786  -32.6199 C   0  0  2  0  0  0  0  0  0  0  0  0
   -9.3857  -40.9532  -31.6413 C   0  0  0  0  0  0  0  0  0  0  0  0
   -8.3120  -38.8685  -33.6128 C   0  0  0  0  0  0  0  0  0  0  0  0
   -8.9943  -39.2506  -34.9237 C   0  0  0  0  0  0  0  0  0  0  0  0
   -8.9384  -39.4167  -37.3525 C   0  0  0  0  0  0  0  0  0  0  0  0
   -5.3455  -36.9079  -38.6976 C   0  0  0  0  0  0  0  0  0  0  0  0
   -3.6114  -35.0844  -38.7533 C   0  0  0  0  0  0  0  0  0  0  0  0
   -7.3686  -35.0766  -37.9734 C   0  0  0  0  0  0  0  0  0  0  0  0
  -10.4299  -32.3678  -36.8552 C   0  0  0  0  0  0  0  0  0  0  0  0
   -9.1107  -31.9486  -37.0290 C   0  0  0  0  0  0  0  0  0  0  0  0
   -7.6431  -36.4433  -38.1495 C   0  0  0  0  0  0  0  0  0  0  0  0
  -10.9566  -39.9880  -36.1393 C   0  0  0  0  0  0  0  0  0  0  0  0
   -7.2541  -42.3723  -32.0586 C   0  0  2  0  0  0  0  0  0  0  0  0
   -8.2334  -39.2995  -38.7071 C   0  0  0  0  0  0  0  0  0  0  0  0
   -6.6469  -37.3634  -38.5044 C   0  0  0  0  0  0  0  0  0  0  0  0
   -5.0356  -35.5610  -38.5361 C   0  0  0  0  0  0  0  0  0  0  0  0
   -6.0406  -34.6567  -38.1793 C   0  0  0  0  0  0  0  0  0  0  0  0
   -8.4552  -34.1099  -37.5755 C   0  0  0  0  0  0  0  0  0  0  0  0
  -10.6908  -33.7216  -37.0639 C   0  0  0  0  0  0  0  0  0  0  0  0
   -5.9191  -42.5235  -32.8334 C   0  0  1  0  0  0  0  0  0  0  0  0
  -10.2637  -39.8620  -37.3405 C   0  0  0  0  0  0  0  0  0  0  0  0
  -10.3272  -39.6723  -34.9381 C   0  0  0  0  0  0  0  0  0  0  0  0
   -5.2366  -41.1528  -32.9876 C   0  0  1  0  0  0  0  0  0  0  0  0
   -8.3095  -39.1169  -36.1339 C   0  0  0  0  0  0  0  0  0  0  0  0
   -6.8834  -38.7389  -38.6644 N   0  0  0  0  0  0  0  0  0  0  0  0
   -8.1151  -32.8018  -37.3884 N   0  0  0  0  0  0  0  0  0  0  0  0
   -7.9265  -43.6185  -32.0080 O   0  0  0  0  0  0  0  0  0  0  0  0
   -5.0678  -43.4509  -32.1893 O   0  0  0  0  0  0  0  0  0  0  0  0
   -3.9809  -41.2292  -33.6288 O   0  0  0  0  0  0  0  0  0  0  0  0
   -8.9974  -40.1448  -30.5485 O   0  0  0  0  0  0  0  0  0  0  0  0
   -7.1284  -39.5951  -32.0487 H   0  0  0  0  0  0  0  0  0  0  0  0
   -5.6877  -39.2560  -33.9792 H   0  0  0  0  0  0  0  0  0  0  0  0
   -6.4934  -40.6597  -34.7085 H   0  0  0  0  0  0  0  0  0  0  0  0
   -8.6110  -41.6186  -33.5801 H   0  0  0  0  0  0  0  0  0  0  0  0
   -9.8127  -41.8720  -31.2411 H   0  0  0  0  0  0  0  0  0  0  0  0
  -10.2114  -40.4648  -32.1499 H   0  0  0  0  0  0  0  0  0  0  0  0
   -7.6396  -38.0211  -33.7569 H   0  0  0  0  0  0  0  0  0  0  0  0
   -9.0357  -38.5764  -32.8515 H   0  0  0  0  0  0  0  0  0  0  0  0
   -4.5649  -37.6056  -38.9687 H   0  0  0  0  0  0  0  0  0  0  0  0
   -3.6014  -34.2426  -39.4455 H   0  0  0  0  0  0  0  0  0  0  0  0
   -3.1750  -34.7528  -37.8107 H   0  0  0  0  0  0  0  0  0  0  0  0
   -2.9771  -35.8647  -39.1774 H   0  0  0  0  0  0  0  0  0  0  0  0
  -11.2109  -31.6771  -36.5763 H   0  0  0  0  0  0  0  0  0  0  0  0
   -8.8389  -30.9134  -36.8838 H   0  0  0  0  0  0  0  0  0  0  0  0
   -8.6495  -36.7999  -37.9965 H   0  0  0  0  0  0  0  0  0  0  0  0
  -11.9830  -40.3243  -36.1422 H   0  0  0  0  0  0  0  0  0  0  0  0
   -7.0072  -42.1192  -31.0254 H   0  0  0  0  0  0  0  0  0  0  0  0
   -8.8497  -38.7050  -39.3841 H   0  0  0  0  0  0  0  0  0  0  0  0
   -8.1715  -40.2915  -39.1553 H   0  0  0  0  0  0  0  0  0  0  0  0
   -5.7736  -33.6180  -38.0537 H   0  0  0  0  0  0  0  0  0  0  0  0
  -11.6872  -34.1207  -36.9445 H   0  0  0  0  0  0  0  0  0  0  0  0
   -6.1245  -42.9341  -33.8223 H   0  0  0  0  0  0  0  0  0  0  0  0
  -10.7650  -40.1053  -38.2669 H   0  0  0  0  0  0  0  0  0  0  0  0
  -10.8930  -39.7414  -34.0243 H   0  0  0  0  0  0  0  0  0  0  0  0
   -5.0275  -40.7487  -31.9989 H   0  0  0  0  0  0  0  0  0  0  0  0
   -7.2861  -38.7717  -36.1184 H   0  0  0  0  0  0  0  0  0  0  0  0
   -6.1578  -39.2636  -39.1393 H   0  0  0  0  0  0  0  0  0  0  0  0
   -8.3494  -43.7033  -31.1418 H   0  0  0  0  0  0  0  0  0  0  0  0
   -4.2183  -43.4648  -32.6462 H   0  0  0  0  0  0  0  0  0  0  0  0
   -4.0856  -41.7361  -34.4436 H   0  0  0  0  0  0  0  0  0  0  0  0
   -8.6660  -40.7217  -29.8473 H   0  0  0  0  0  0  0  0  0  0  0  0
  1  3  1  0
  1  4  1  0
  1  6  1  0
  1 34  1  1
  2 21  2  0
  2 22  1  0
  3 26  1  0
  3 35  1  0
  3 36  1  0
  4  5  1  0
  4 16  1  0
  4 37  1  6
  5 33  1  0
  5 38  1  0
  5 39  1  0
  6  7  1  0
  6 40  1  0
  6 41  1  0
  7 25  2  0
  7 27  1  0
  8 17  1  0
  8 24  1  0
  8 27  2  0
  9 18  2  0
  9 19  1  0
  9 42  1  0
 10 19  1  0
 10 43  1  0
 10 44  1  0
 10 45  1  0
 11 14  2  0
 11 20  1  0
 11 21  1  0
 12 13  1  0
 12 22  2  0
 12 46  1  0
 13 29  2  0
 13 47  1  0
 14 18  1  0
 14 48  1  0
 15 24  2  0
 15 25  1  0
 15 49  1  0
 16 23  1  0
 16 30  1  0
 16 50  1  1
 17 28  1  0
 17 51  1  0
 17 52  1  0
 18 28  1  0
 19 20  2  0
 20 53  1  0
 21 29  1  0
 22 54  1  0
 23 26  1  0
 23 31  1  0
 23 55  1  6
 24 56  1  0
 25 57  1  0
 26 32  1  0
 26 58  1  1
 27 59  1  0
 28 60  1  0
 30 61  1  0
 31 62  1  0
 32 63  1  0
 33 64  1  0
M  CHG  1   1   1
M  END
$$$$
