8G6P - prepared_ligand2
     RDKit          3D

 27 26  0  0  1  0  0  0  0  0999 V2000
  -33.0515    7.3847   -8.0696 C   0  0  0  0  0  0  0  0  0  0  0  0
  -32.3832    8.7874   -8.0218 C   0  0  2  0  0  0  0  0  0  0  0  0
  -30.8587    8.7325   -7.7291 C   0  0  0  0  0  0  0  0  0  0  0  0
  -30.4622    8.1268   -6.3648 C   0  0  0  0  0  0  0  0  0  0  0  0
  -28.9488    7.8419   -6.2593 C   0  0  0  0  0  0  0  0  0  0  0  0
  -28.4639    7.1893   -4.9400 C   0  0  2  0  0  0  0  0  0  0  0  0
  -29.2471    5.9014   -4.5717 C   0  0  0  0  0  0  0  0  0  0  0  0
  -32.6898    6.6302   -8.9995 O   0  0  0  0  0  0  0  0  0  0  0  0
  -33.8841    7.0449   -7.1962 O   0  0  0  0  0  0  0  0  0  0  0  0
  -28.9960    4.8867   -5.2557 O   0  0  0  0  0  0  0  0  0  0  0  0
  -30.1257    5.9249   -3.6817 O   0  0  0  0  0  0  0  0  0  0  0  0
  -33.0928    9.6540   -6.9673 N   0  0  0  0  0  0  0  0  0  0  0  0
  -28.5881    8.2104   -3.8000 N   0  0  0  0  0  0  0  0  0  0  0  0
  -32.5839    9.3351   -8.9431 H   0  0  0  0  0  0  0  0  0  0  0  0
  -30.4414    9.7383   -7.7976 H   0  0  0  0  0  0  0  0  0  0  0  0
  -30.3741    8.1583   -8.5209 H   0  0  0  0  0  0  0  0  0  0  0  0
  -31.0124    7.1986   -6.2130 H   0  0  0  0  0  0  0  0  0  0  0  0
  -30.7692    8.7912   -5.5584 H   0  0  0  0  0  0  0  0  0  0  0  0
  -28.4076    8.7763   -6.4143 H   0  0  0  0  0  0  0  0  0  0  0  0
  -28.6737    7.1879   -7.0853 H   0  0  0  0  0  0  0  0  0  0  0  0
  -27.3916    6.9935   -4.9634 H   0  0  0  0  0  0  0  0  0  0  0  0
  -32.6610   10.5670   -6.9196 H   0  0  0  0  0  0  0  0  0  0  0  0
  -34.0660    9.7733   -7.2108 H   0  0  0  0  0  0  0  0  0  0  0  0
  -33.0255    9.2221   -6.0555 H   0  0  0  0  0  0  0  0  0  0  0  0
  -28.2370    7.8124   -2.9387 H   0  0  0  0  0  0  0  0  0  0  0  0
  -28.0411    9.0314   -4.0176 H   0  0  0  0  0  0  0  0  0  0  0  0
  -29.5512    8.4875   -3.6713 H   0  0  0  0  0  0  0  0  0  0  0  0
  1  2  1  0
  1  8  2  0
  1  9  1  0
  2  3  1  0
  2 12  1  0
  2 14  1  6
  3  4  1  0
  3 15  1  0
  3 16  1  0
  4  5  1  0
  4 17  1  0
  4 18  1  0
  5  6  1  0
  5 19  1  0
  5 20  1  0
  6  7  1  0
  6 13  1  0
  6 21  1  6
  7 10  2  0
  7 11  1  0
 12 22  1  0
 12 23  1  0
 12 24  1  0
 13 25  1  0
 13 26  1  0
 13 27  1  0
M  CHG  4   9  -1  11  -1  12   1  13   1
M  END
$$$$
